                                  MODFLOW-2005     
      U.S. GEOLOGICAL SURVEY MODULAR FINITE-DIFFERENCE GROUND-WATER FLOW MODEL
                            VERSION 1.11.00 8/8/2013

 LIST FILE: wellfield.list
                         UNIT    2

 OPENING wellfield.dis
 FILE TYPE:DIS   UNIT   11   STATUS:OLD    
 FORMAT:FORMATTED              ACCESS:SEQUENTIAL          

 OPENING wellfield.bas
 FILE TYPE:BAS6   UNIT   13   STATUS:OLD    
 FORMAT:FORMATTED              ACCESS:SEQUENTIAL          

 OPENING wellfield.lpf
 FILE TYPE:LPF   UNIT   15   STATUS:OLD    
 FORMAT:FORMATTED              ACCESS:SEQUENTIAL          

 OPENING wellfield.pcg
 FILE TYPE:PCG   UNIT   27   STATUS:OLD    
 FORMAT:FORMATTED              ACCESS:SEQUENTIAL          

 OPENING wellfield.oc
 FILE TYPE:OC   UNIT   14   STATUS:OLD    
 FORMAT:FORMATTED              ACCESS:SEQUENTIAL          

 OPENING wellfield.mnw2
 FILE TYPE:MNW2   UNIT   23   STATUS:OLD    
 FORMAT:FORMATTED              ACCESS:SEQUENTIAL          

 OPENING wellfield.mnwi
 FILE TYPE:MNWI   UNIT   79   STATUS:OLD    
 FORMAT:FORMATTED              ACCESS:SEQUENTIAL          

 OPENING wellfield.qsu
 FILE TYPE:DATA   UNIT   81   STATUS:UNKNOWN
 FORMAT:FORMATTED              ACCESS:SEQUENTIAL          

 OPENING wellfield.byn
 FILE TYPE:DATA   UNIT   82   STATUS:UNKNOWN
 FORMAT:FORMATTED              ACCESS:SEQUENTIAL          

 OPENING wellfield.wlA
 FILE TYPE:DATA   UNIT   45   STATUS:UNKNOWN
 FORMAT:FORMATTED              ACCESS:SEQUENTIAL          

 OPENING wellfield.hds
 FILE TYPE:DATA(BINARY)   UNIT   51   STATUS:REPLACE
 FORMAT:BINARY                 ACCESS:SEQUENTIAL          

 OPENING wellfield.ddn
 FILE TYPE:DATA(BINARY)   UNIT   52   STATUS:REPLACE
 FORMAT:BINARY                 ACCESS:SEQUENTIAL          

 OPENING wellfield.cbc
 FILE TYPE:DATA(BINARY)   UNIT   53   STATUS:REPLACE
 FORMAT:BINARY                 ACCESS:SEQUENTIAL          

 BAS -- BASIC PACKAGE, VERSION 7, 5/2/2005 INPUT READ FROM UNIT   13
 
 MODFLOW was compiled using mixed precision
 Precision of REAL variables:           6
 Precision of DOUBLE PRECISION variables:          15

 DISCRETIZATION INPUT DATA READ FROM UNIT   11
 # Discretization file for MODFLOW, generated by Flopy.
    2 LAYERS       100 ROWS       100 COLUMNS
   10 STRESS PERIOD(S) IN SIMULATION
 MODEL TIME UNIT IS DAYS
 MODEL LENGTH UNIT IS METERS
  Confining bed flag for each layer:
   0   0

                     DELR =   50.0000    

                     DELC =   50.0000    

 TOP ELEVATION OF LAYER 1 =   80.0000    

   MODEL LAYER BOTTOM EL. =   20.0000     FOR LAYER   1

   MODEL LAYER BOTTOM EL. =   0.00000     FOR LAYER   2


 STRESS PERIOD     LENGTH       TIME STEPS     MULTIPLIER FOR DELT    SS FLAG
 ----------------------------------------------------------------------------
        1        1.0000000          1                    1.000         SS
        2        100.00000         10                    1.000         TR
        3         365.0000         10                    1.000         TR
        4         365.0000         10                    1.000         TR
        5         365.0000         10                    1.000         TR
        6         365.0000         10                    1.000         TR
        7         365.0000         10                    1.000         TR
        8         365.0000         10                    1.000         TR
        9         365.0000         10                    1.000         TR
       10         365.0000         10                    1.000         TR

 COMBINED STEADY-STATE AND TRANSIENT SIMULATION



 
 # Basic package file for MODFLOW, generated by Flopy.                           
 THE FREE FORMAT OPTION HAS BEEN SELECTED



                     BOUNDARY ARRAY FOR LAYER   1
 READING ON UNIT   13 WITH FORMAT: (100I10)            



                     BOUNDARY ARRAY FOR LAYER   2
 READING ON UNIT   13 WITH FORMAT: (100I10)            

 AQUIFER HEAD WILL BE SET TO  -999.99     AT ALL NO-FLOW NODES (IBOUND=0).



                       INITIAL HEAD FOR LAYER   1
 READING ON UNIT   13 WITH FORMAT: (100E15.6)          



                       INITIAL HEAD FOR LAYER   2
 READING ON UNIT   13 WITH FORMAT: (100E15.6)          
 # Output control package file for MODFLOW, generated by Flopy.

 OUTPUT CONTROL IS SPECIFIED ONLY AT TIME STEPS FOR WHICH OUTPUT IS DESIRED
 COMPACT CELL-BY-CELL BUDGET FILES WILL BE WRITTEN
 AUXILIARY DATA WILL BE SAVED IN CELL-BY-CELL BUDGET FILES
 HEAD PRINT FORMAT CODE IS   0    DRAWDOWN PRINT FORMAT CODE IS   0
 HEADS WILL BE SAVED ON UNIT   51    DRAWDOWNS WILL BE SAVED ON UNIT   52

 LPF -- LAYER-PROPERTY FLOW PACKAGE, VERSION 7, 5/2/2005
         INPUT READ FROM UNIT   15
 # LPF for MODFLOW, generated by Flopy.
 CELL-BY-CELL FLOWS WILL BE SAVED ON UNIT   53
 HEAD AT CELLS THAT CONVERT TO DRY= -1.00000E+30
 No named parameters

   LAYER FLAGS:
 LAYER       LAYTYP        LAYAVG         CHANI        LAYVKA        LAYWET
 ---------------------------------------------------------------------------
    1             1             0     1.000E+00             0             0
    2             0             0     1.000E+00             0             0

   INTERPRETATION OF LAYER FLAGS:
                        INTERBLOCK     HORIZONTAL    DATA IN
         LAYER TYPE   TRANSMISSIVITY   ANISOTROPY   ARRAY VKA   WETTABILITY
 LAYER      (LAYTYP)      (LAYAVG)       (CHANI)      (LAYVKA)      (LAYWET)
 ---------------------------------------------------------------------------
    1   CONVERTIBLE      HARMONIC     1.000E+00    VERTICAL K  NON-WETTABLE
    2      CONFINED      HARMONIC     1.000E+00    VERTICAL K  NON-WETTABLE

 WETTING CAPABILITY IS NOT ACTIVE IN ANY LAYER

    HYD. COND. ALONG ROWS =  8.640000E-03 FOR LAYER   1

      VERTICAL HYD. COND. =  8.640000E-03 FOR LAYER   1

         SPECIFIC STORAGE =  1.000000E-04 FOR LAYER   1

           SPECIFIC YIELD =  2.300000E-02 FOR LAYER   1

    HYD. COND. ALONG ROWS =   1.72800     FOR LAYER   2

      VERTICAL HYD. COND. =   1.72800     FOR LAYER   2

         SPECIFIC STORAGE =  1.000000E-04 FOR LAYER   2

 PCG -- CONJUGATE-GRADIENT SOLUTION PACKAGE, VERSION 7, 5/2/2005
 # PCG for MODFLOW, generated by Flopy.
 MAXIMUM OF     50 CALLS OF SOLUTION ROUTINE
 MAXIMUM OF     30 INTERNAL ITERATIONS PER CALL TO SOLUTION ROUTINE
 MATRIX PRECONDITIONING TYPE :    1



                                    SOLUTION BY THE CONJUGATE-GRADIENT METHOD
                                   -------------------------------------------
                    MAXIMUM NUMBER OF CALLS TO PCG ROUTINE =       50
                        MAXIMUM ITERATIONS PER CALL TO PCG =       30
                               MATRIX PRECONDITIONING TYPE =        1
        RELAXATION FACTOR (ONLY USED WITH PRECOND. TYPE 1) =    0.10000E+01
 PARAMETER OF POLYNOMIAL PRECOND. = 2 (2) OR IS CALCULATED :        0
                         HEAD CHANGE CRITERION FOR CLOSURE =    0.10000E-03
                     RESIDUAL CHANGE CRITERION FOR CLOSURE =    0.10000E-03
            PCG HEAD AND RESIDUAL CHANGE PRINTOUT INTERVAL =      999
     PRINTING FROM SOLVER IS LIMITED(1) OR SUPPRESSED (>1) =        3
                            STEADY-STATE DAMPING PARAMETER =    0.10000E+01
                               TRANSIENT DAMPING PARAMETER =    0.10000E+01

 MNW2 -- MULTI-NODE WELL 2 PACKAGE, VERSION 7.2, 12/20/2012.
    INPUT READ FROM UNIT  23
 # MNW2 for MODFLOW, generated by Flopy.
 MAXIMUM OF    3 ACTIVE MULTI-NODE WELLS AT ONE TIME
 
 IWL2CB =          -90
 CELL-BY-CELL FLOWS WILL BE PRINTED WHEN ICBCFL NOT 0
 MNWPRNT =            2
 MNWI Package input:
 Wel1flag =            0
 QSUMflag =           81
 BYNDflag =           82
 
1
                            STRESS PERIOD NO.    1, LENGTH =  1.0000000    
                            -----------------------------------------------

                              NUMBER OF TIME STEPS =     1

                               MULTIPLIER FOR DELT =     1.000

                            INITIAL TIME STEP SIZE =  1.0000000    
 
 MNW2 Input:
 
 
 WELLID             NNODES    LOSSTYPE PUMPLOC  Qlimit  PPFLAG PUMPCAP
 WELL1                  -1      SKIN         0       0       0       5
 
 NNODES < 0: well defined using open intervals as described below
 Interval      Ztop       Zbotm      Row  Col      Rw       Rskin      Kskin 
    1        20.000      0.0000       50   50   1.0000      1.200     100.00    
 
 The following nodes were assigned to this well based on above open interval information
 Node  Lay  Row  Col 
    1    2   50   50
 
 
 WELLID             NNODES    LOSSTYPE PUMPLOC  Qlimit  PPFLAG PUMPCAP
 WELL2                  -1      SKIN         0       0       0       5
 
 NNODES < 0: well defined using open intervals as described below
 Interval      Ztop       Zbotm      Row  Col      Rw       Rskin      Kskin 
    1        20.000      0.0000       30   50   1.0000      1.200     100.00    
 
 The following nodes were assigned to this well based on above open interval information
 Node  Lay  Row  Col 
    1    2   30   50
 
 
 WELLID             NNODES    LOSSTYPE PUMPLOC  Qlimit  PPFLAG PUMPCAP
 WELL3                  -1      SKIN         0       0       0       5
 
 NNODES < 0: well defined using open intervals as described below
 Interval      Ztop       Zbotm      Row  Col      Rw       Rskin      Kskin 
    1        20.000      0.0000       70   50   1.0000      1.200     100.00    
 
 The following nodes were assigned to this well based on above open interval information
 Node  Lay  Row  Col 
    1    2   70   50
 
 MNW2:            3  active wells in stress period            1
 
 
 WELLNAME = WELL1               
MNW2 Well well1                active, desired Q =  0.0000E+00 for stress period    1
 
 WELLNAME = WELL2               
MNW2 Well well2                active, desired Q =  0.0000E+00 for stress period    1
 
 WELLNAME = WELL3               
MNW2 Well well3                active, desired Q =  0.0000E+00 for stress period    1



SITE IDS FOR   3 MNW2 WELLS DESIGNATED FOR OBSERVATION:

  WELL #   SITE ID         UNIT  QNDflag QBHflag
       1   WELL1             45       1       1
       2   WELL2             45       1       1
       3   WELL3             45       1       1
DATA FOR MNW WELLS DESIGNATED FOR OBSERVATION WILL BE WRITTEN ON UNIT NUMBERS LISTED ABOVE


 
 SOLVING FOR HEAD 
 
MNW2 Well Conductance and Screen (Open Interval) Data
                              M O D E L  L A Y E R     W E L L  S C R E E N   Penetration    SKIN       CALCULATED
WELLID        Node    CWC*     top_elev    bott.elev    top_elev   bott.elev    fraction     COEFF.          B
WELL1            1   102.8        20.00       0.000       20.00       0.000      1.0000     -0.1792     -8.2511E-04          
WELL2            1   102.8        20.00       0.000       20.00       0.000      1.0000     -0.1792     -8.2511E-04          
WELL3            1   102.8        20.00       0.000       20.00       0.000      1.0000     -0.1792     -8.2511E-04          
* Cell-to-well conductance values (CWC) may change during the course of a stress period
 

 OUTPUT CONTROL FOR STRESS PERIOD    1   TIME STEP    1
    SAVE HEAD FOR ALL LAYERS
    SAVE BUDGET
 UBDSV2 SAVING "   CONSTANT HEAD" ON UNIT  53 AT TIME STEP  1, STRESS PERIOD   1
 UBDSV1 SAVING "FLOW RIGHT FACE " ON UNIT  53 AT TIME STEP  1, STRESS PERIOD   1
 UBDSV1 SAVING "FLOW FRONT FACE " ON UNIT  53 AT TIME STEP  1, STRESS PERIOD   1
 UBDSV1 SAVING "FLOW LOWER FACE " ON UNIT  53 AT TIME STEP  1, STRESS PERIOD   1

 Nodal information for all MNW2 wells, PERIOD =    1  STEP =    1
WELLID                NODE   Lay   Row   Col        Totim        Q-node         hwell         hcell    Seepage elev.
WELL1                    1     2    50    50   1.000000E+00  0.000000E+00  8.000000E+01  8.000000E+01
WELL2                    1     2    30    50   1.000000E+00  0.000000E+00  8.000000E+01  8.000000E+01
WELL3                    1     2    70    50   1.000000E+00  0.000000E+00  8.000000E+01  8.000000E+01

     Summary information for MNW2 wells
WELLID                    Totim            Qin           Qout           Qnet          hwell
WELL1                  1.000000        0.00000        0.00000        0.00000        80.0000    
WELL2                  1.000000        0.00000        0.00000        0.00000        80.0000    
WELL3                  1.000000        0.00000        0.00000        0.00000        80.0000    
 
 UBUDSV SAVING "            MNW2" ON UNIT 90 AT TIME STEP  1, STRESS PERIOD    1

 HEAD WILL BE SAVED ON UNIT   51 AT END OF TIME STEP    1, STRESS PERIOD    1
1
  VOLUMETRIC BUDGET FOR ENTIRE MODEL AT END OF TIME STEP    1, STRESS PERIOD   1
  ------------------------------------------------------------------------------

     CUMULATIVE VOLUMES      L**3       RATES FOR THIS TIME STEP      L**3/T
     ------------------                 ------------------------

           IN:                                      IN:
           ---                                      ---
             STORAGE =           0.0000               STORAGE =           0.0000
       CONSTANT HEAD =           0.0000         CONSTANT HEAD =           0.0000
                MNW2 =           0.0000                  MNW2 =           0.0000

            TOTAL IN =           0.0000              TOTAL IN =           0.0000

          OUT:                                     OUT:
          ----                                     ----
             STORAGE =           0.0000               STORAGE =           0.0000
       CONSTANT HEAD =           0.0000         CONSTANT HEAD =           0.0000
                MNW2 =           0.0000                  MNW2 =           0.0000

           TOTAL OUT =           0.0000             TOTAL OUT =           0.0000

            IN - OUT =           0.0000              IN - OUT =           0.0000

 PERCENT DISCREPANCY =           0.00     PERCENT DISCREPANCY =           0.00






         TIME SUMMARY AT END OF TIME STEP    1 IN STRESS PERIOD    1
                    SECONDS     MINUTES      HOURS       DAYS        YEARS
                    -----------------------------------------------------------
   TIME STEP LENGTH  86400.      1440.0      24.000     1.00000     2.73785E-03
 STRESS PERIOD TIME  86400.      1440.0      24.000     1.00000     2.73785E-03
         TOTAL TIME  86400.      1440.0      24.000     1.00000     2.73785E-03
1
1
                            STRESS PERIOD NO.    2, LENGTH =  100.00000    
                            -----------------------------------------------

                              NUMBER OF TIME STEPS =    10

                               MULTIPLIER FOR DELT =     1.000

                            INITIAL TIME STEP SIZE =  10.000000    
 
 MNW2:            3  active wells in stress period            2
 
 
 WELLNAME = WELL1               
MNW2 Well well1                active, desired Q = -3.2370E+03 for stress period    2
 
Reference head for calculating lift =   1.0000E+01
Pump Capacity Multiplier =   1.0000E+00
HWtol =   1.0000E-02
     (Note: Solution may be sensitive to value of HWtol; adjust value if solution fails to converge.)
 
   Well Capacity Table
    Lift       Discharge
   80.000       0.000    
   75.000       809.0    
   70.000       1618.    
   65.000       2427.    
   60.000       3235.    
  1.00000       3236.    
   0.0000       3237.    
 
 WELLNAME = WELL2               
MNW2 Well well2                active, desired Q = -3.2370E+03 for stress period    2
 
Reference head for calculating lift =   1.0000E+01
Pump Capacity Multiplier =   1.0000E+00
HWtol =   1.0000E-02
     (Note: Solution may be sensitive to value of HWtol; adjust value if solution fails to converge.)
 
   Well Capacity Table
    Lift       Discharge
   80.000       0.000    
   75.000       809.0    
   70.000       1618.    
   65.000       2427.    
   60.000       3235.    
  1.00000       3236.    
   0.0000       3237.    
 
 WELLNAME = WELL3               
MNW2 Well well3                active, desired Q = -3.2370E+03 for stress period    2
 
Reference head for calculating lift =   1.0000E+01
Pump Capacity Multiplier =   1.0000E+00
HWtol =   1.0000E-02
     (Note: Solution may be sensitive to value of HWtol; adjust value if solution fails to converge.)
 
   Well Capacity Table
    Lift       Discharge
   80.000       0.000    
   75.000       809.0    
   70.000       1618.    
   65.000       2427.    
   60.000       3235.    
  1.00000       3236.    
   0.0000       3237.    
 
 SOLVING FOR HEAD 
 
MNW2 Well Conductance and Screen (Open Interval) Data
                              M O D E L  L A Y E R     W E L L  S C R E E N   Penetration    SKIN       CALCULATED
WELLID        Node    CWC*     top_elev    bott.elev    top_elev   bott.elev    fraction     COEFF.          B
WELL1            1   102.8        20.00       0.000       20.00       0.000      1.0000     -0.1792     -8.2511E-04          
WELL2            1   102.8        20.00       0.000       20.00       0.000      1.0000     -0.1792     -8.2511E-04          
WELL3            1   102.8        20.00       0.000       20.00       0.000      1.0000     -0.1792     -8.2511E-04          
* Cell-to-well conductance values (CWC) may change during the course of a stress period
 
  Capacity Q calculations stopped iter. no.   4 due to hwell change less than HWtol for well WELL1               
  with Pump-Capacity Q =   -3237.00000000000     
  Capacity Q calculations stopped iter. no.   4 due to hwell change less than HWtol for well WELL2               
  with Pump-Capacity Q =   -3237.00000000000     
  Capacity Q calculations stopped iter. no.   4 due to hwell change less than HWtol for well WELL3               
  with Pump-Capacity Q =   -3237.00000000000     

 NO OUTPUT CONTROL FOR STRESS PERIOD    2   TIME STEP    1
 
  MNW2 WELL: WELL1                Qnet =   -3122.08396281629       < Qdes
   Q  updated because of Pump Capacity restraint and/or Seepage Face calculation
 
  MNW2 WELL: WELL2                Qnet =   -3131.30699216332       < Qdes
   Q  updated because of Pump Capacity restraint and/or Seepage Face calculation
 
  MNW2 WELL: WELL3                Qnet =   -3131.30851935720       < Qdes
   Q  updated because of Pump Capacity restraint and/or Seepage Face calculation
 
 SOLVING FOR HEAD 
 
MNW2 Well Conductance and Screen (Open Interval) Data
                              M O D E L  L A Y E R     W E L L  S C R E E N   Penetration    SKIN       CALCULATED
WELLID        Node    CWC*     top_elev    bott.elev    top_elev   bott.elev    fraction     COEFF.          B
WELL1            1   102.8        20.00       0.000       20.00       0.000      1.0000     -0.1792     -8.2511E-04          
WELL2            1   102.8        20.00       0.000       20.00       0.000      1.0000     -0.1792     -8.2511E-04          
WELL3            1   102.8        20.00       0.000       20.00       0.000      1.0000     -0.1792     -8.2511E-04          
* Cell-to-well conductance values (CWC) may change during the course of a stress period
 
  Capacity Q calculations stopped iter. no.   4 due to hwell change less than HWtol for well WELL1               
  with Pump-Capacity Q =   -3237.00000000000     
  Capacity Q calculations stopped iter. no.   4 due to hwell change less than HWtol for well WELL2               
  with Pump-Capacity Q =   -3237.00000000000     
  Capacity Q calculations stopped iter. no.   4 due to hwell change less than HWtol for well WELL3               
  with Pump-Capacity Q =   -3237.00000000000     

 NO OUTPUT CONTROL FOR STRESS PERIOD    2   TIME STEP    2
 
  MNW2 WELL: WELL1                Qnet =   -2966.78878901027       < Qdes
   Q  updated because of Pump Capacity restraint and/or Seepage Face calculation
 
  MNW2 WELL: WELL2                Qnet =   -2984.13725661135       < Qdes
   Q  updated because of Pump Capacity restraint and/or Seepage Face calculation
 
  MNW2 WELL: WELL3                Qnet =   -2984.14255728499       < Qdes
   Q  updated because of Pump Capacity restraint and/or Seepage Face calculation
 
 SOLVING FOR HEAD 
 
MNW2 Well Conductance and Screen (Open Interval) Data
                              M O D E L  L A Y E R     W E L L  S C R E E N   Penetration    SKIN       CALCULATED
WELLID        Node    CWC*     top_elev    bott.elev    top_elev   bott.elev    fraction     COEFF.          B
WELL1            1   102.8        20.00       0.000       20.00       0.000      1.0000     -0.1792     -8.2511E-04          
WELL2            1   102.8        20.00       0.000       20.00       0.000      1.0000     -0.1792     -8.2511E-04          
WELL3            1   102.8        20.00       0.000       20.00       0.000      1.0000     -0.1792     -8.2511E-04          
* Cell-to-well conductance values (CWC) may change during the course of a stress period
 
  Capacity Q calculations stopped iter. no.   4 due to hwell change less than HWtol for well WELL1               
  with Pump-Capacity Q =   -3237.00000000000     
  Capacity Q calculations stopped iter. no.   4 due to hwell change less than HWtol for well WELL2               
  with Pump-Capacity Q =   -3237.00000000000     
  Capacity Q calculations stopped iter. no.   4 due to hwell change less than HWtol for well WELL3               
  with Pump-Capacity Q =   -3237.00000000000     

 NO OUTPUT CONTROL FOR STRESS PERIOD    2   TIME STEP    3
 
  MNW2 WELL: WELL1                Qnet =   -2915.54558472512       < Qdes
   Q  updated because of Pump Capacity restraint and/or Seepage Face calculation
 
  MNW2 WELL: WELL2                Qnet =   -2938.22273648264       < Qdes
   Q  updated because of Pump Capacity restraint and/or Seepage Face calculation
 
  MNW2 WELL: WELL3                Qnet =   -2938.23355833397       < Qdes
   Q  updated because of Pump Capacity restraint and/or Seepage Face calculation
 
 SOLVING FOR HEAD 
 
MNW2 Well Conductance and Screen (Open Interval) Data
                              M O D E L  L A Y E R     W E L L  S C R E E N   Penetration    SKIN       CALCULATED
WELLID        Node    CWC*     top_elev    bott.elev    top_elev   bott.elev    fraction     COEFF.          B
WELL1            1   102.8        20.00       0.000       20.00       0.000      1.0000     -0.1792     -8.2511E-04          
WELL2            1   102.8        20.00       0.000       20.00       0.000      1.0000     -0.1792     -8.2511E-04          
WELL3            1   102.8        20.00       0.000       20.00       0.000      1.0000     -0.1792     -8.2511E-04          
* Cell-to-well conductance values (CWC) may change during the course of a stress period
 
  Capacity Q calculations stopped iter. no.   4 due to hwell change less than HWtol for well WELL1               
  with Pump-Capacity Q =   -3237.00000000000     
  Capacity Q calculations stopped iter. no.   4 due to hwell change less than HWtol for well WELL2               
  with Pump-Capacity Q =   -3237.00000000000     
  Capacity Q calculations stopped iter. no.   4 due to hwell change less than HWtol for well WELL3               
  with Pump-Capacity Q =   -3237.00000000000     

 NO OUTPUT CONTROL FOR STRESS PERIOD    2   TIME STEP    4
 
  MNW2 WELL: WELL1                Qnet =   -2881.69719542242       < Qdes
   Q  updated because of Pump Capacity restraint and/or Seepage Face calculation
 
  MNW2 WELL: WELL2                Qnet =   -2908.11795512744       < Qdes
   Q  updated because of Pump Capacity restraint and/or Seepage Face calculation
 
  MNW2 WELL: WELL3                Qnet =   -2908.13528481737       < Qdes
   Q  updated because of Pump Capacity restraint and/or Seepage Face calculation
 
 SOLVING FOR HEAD 
 
MNW2 Well Conductance and Screen (Open Interval) Data
                              M O D E L  L A Y E R     W E L L  S C R E E N   Penetration    SKIN       CALCULATED
WELLID        Node    CWC*     top_elev    bott.elev    top_elev   bott.elev    fraction     COEFF.          B
WELL1            1   102.8        20.00       0.000       20.00       0.000      1.0000     -0.1792     -8.2511E-04          
WELL2            1   102.8        20.00       0.000       20.00       0.000      1.0000     -0.1792     -8.2511E-04          
WELL3            1   102.8        20.00       0.000       20.00       0.000      1.0000     -0.1792     -8.2511E-04          
* Cell-to-well conductance values (CWC) may change during the course of a stress period
 
  Capacity Q calculations stopped iter. no.   4 due to hwell change less than HWtol for well WELL1               
  with Pump-Capacity Q =   -3237.00000000000     
  Capacity Q calculations stopped iter. no.   4 due to hwell change less than HWtol for well WELL2               
  with Pump-Capacity Q =   -3237.00000000000     
  Capacity Q calculations stopped iter. no.   4 due to hwell change less than HWtol for well WELL3               
  with Pump-Capacity Q =   -3237.00000000000     

 NO OUTPUT CONTROL FOR STRESS PERIOD    2   TIME STEP    5
 
  MNW2 WELL: WELL1                Qnet =   -2852.75778591255       < Qdes
   Q  updated because of Pump Capacity restraint and/or Seepage Face calculation
 
  MNW2 WELL: WELL2                Qnet =   -2882.27660780140       < Qdes
   Q  updated because of Pump Capacity restraint and/or Seepage Face calculation
 
  MNW2 WELL: WELL3                Qnet =   -2882.30100658436       < Qdes
   Q  updated because of Pump Capacity restraint and/or Seepage Face calculation
 
 SOLVING FOR HEAD 
 
MNW2 Well Conductance and Screen (Open Interval) Data
                              M O D E L  L A Y E R     W E L L  S C R E E N   Penetration    SKIN       CALCULATED
WELLID        Node    CWC*     top_elev    bott.elev    top_elev   bott.elev    fraction     COEFF.          B
WELL1            1   102.8        20.00       0.000       20.00       0.000      1.0000     -0.1792     -8.2511E-04          
WELL2            1   102.8        20.00       0.000       20.00       0.000      1.0000     -0.1792     -8.2511E-04          
WELL3            1   102.8        20.00       0.000       20.00       0.000      1.0000     -0.1792     -8.2511E-04          
* Cell-to-well conductance values (CWC) may change during the course of a stress period
 
  Capacity Q calculations stopped iter. no.   4 due to hwell change less than HWtol for well WELL1               
  with Pump-Capacity Q =   -3237.00000000000     
  Capacity Q calculations stopped iter. no.   4 due to hwell change less than HWtol for well WELL2               
  with Pump-Capacity Q =   -3237.00000000000     
  Capacity Q calculations stopped iter. no.   4 due to hwell change less than HWtol for well WELL3               
  with Pump-Capacity Q =   -3237.00000000000     

 NO OUTPUT CONTROL FOR STRESS PERIOD    2   TIME STEP    6
 
  MNW2 WELL: WELL1                Qnet =   -2825.62428356360       < Qdes
   Q  updated because of Pump Capacity restraint and/or Seepage Face calculation
 
  MNW2 WELL: WELL2                Qnet =   -2858.02055041068       < Qdes
   Q  updated because of Pump Capacity restraint and/or Seepage Face calculation
 
  MNW2 WELL: WELL3                Qnet =   -2858.05250488024       < Qdes
   Q  updated because of Pump Capacity restraint and/or Seepage Face calculation
 
 SOLVING FOR HEAD 
 
MNW2 Well Conductance and Screen (Open Interval) Data
                              M O D E L  L A Y E R     W E L L  S C R E E N   Penetration    SKIN       CALCULATED
WELLID        Node    CWC*     top_elev    bott.elev    top_elev   bott.elev    fraction     COEFF.          B
WELL1            1   102.8        20.00       0.000       20.00       0.000      1.0000     -0.1792     -8.2511E-04          
WELL2            1   102.8        20.00       0.000       20.00       0.000      1.0000     -0.1792     -8.2511E-04          
WELL3            1   102.8        20.00       0.000       20.00       0.000      1.0000     -0.1792     -8.2511E-04          
* Cell-to-well conductance values (CWC) may change during the course of a stress period
 
  Capacity Q calculations stopped iter. no.   4 due to hwell change less than HWtol for well WELL1               
  with Pump-Capacity Q =   -3237.00000000000     
  Capacity Q calculations stopped iter. no.   4 due to hwell change less than HWtol for well WELL2               
  with Pump-Capacity Q =   -3237.00000000000     
  Capacity Q calculations stopped iter. no.   4 due to hwell change less than HWtol for well WELL3               
  with Pump-Capacity Q =   -3237.00000000000     

 NO OUTPUT CONTROL FOR STRESS PERIOD    2   TIME STEP    7
 
  MNW2 WELL: WELL1                Qnet =   -2799.41171812751       < Qdes
   Q  updated because of Pump Capacity restraint and/or Seepage Face calculation
 
  MNW2 WELL: WELL2                Qnet =   -2834.62346253989       < Qdes
   Q  updated because of Pump Capacity restraint and/or Seepage Face calculation
 
  MNW2 WELL: WELL3                Qnet =   -2834.66352222496       < Qdes
   Q  updated because of Pump Capacity restraint and/or Seepage Face calculation
 
 SOLVING FOR HEAD 
 
MNW2 Well Conductance and Screen (Open Interval) Data
                              M O D E L  L A Y E R     W E L L  S C R E E N   Penetration    SKIN       CALCULATED
WELLID        Node    CWC*     top_elev    bott.elev    top_elev   bott.elev    fraction     COEFF.          B
WELL1            1   102.8        20.00       0.000       20.00       0.000      1.0000     -0.1792     -8.2511E-04          
WELL2            1   102.8        20.00       0.000       20.00       0.000      1.0000     -0.1792     -8.2511E-04          
WELL3            1   102.8        20.00       0.000       20.00       0.000      1.0000     -0.1792     -8.2511E-04          
* Cell-to-well conductance values (CWC) may change during the course of a stress period
 
  Capacity Q calculations stopped iter. no.   4 due to hwell change less than HWtol for well WELL1               
  with Pump-Capacity Q =   -3237.00000000000     
  Capacity Q calculations stopped iter. no.   4 due to hwell change less than HWtol for well WELL2               
  with Pump-Capacity Q =   -3237.00000000000     
  Capacity Q calculations stopped iter. no.   4 due to hwell change less than HWtol for well WELL3               
  with Pump-Capacity Q =   -3237.00000000000     

 NO OUTPUT CONTROL FOR STRESS PERIOD    2   TIME STEP    8
 
  MNW2 WELL: WELL1                Qnet =   -2773.86481966753       < Qdes
   Q  updated because of Pump Capacity restraint and/or Seepage Face calculation
 
  MNW2 WELL: WELL2                Qnet =   -2811.88371169902       < Qdes
   Q  updated because of Pump Capacity restraint and/or Seepage Face calculation
 
  MNW2 WELL: WELL3                Qnet =   -2811.93212527463       < Qdes
   Q  updated because of Pump Capacity restraint and/or Seepage Face calculation
 
 SOLVING FOR HEAD 
 
MNW2 Well Conductance and Screen (Open Interval) Data
                              M O D E L  L A Y E R     W E L L  S C R E E N   Penetration    SKIN       CALCULATED
WELLID        Node    CWC*     top_elev    bott.elev    top_elev   bott.elev    fraction     COEFF.          B
WELL1            1   102.8        20.00       0.000       20.00       0.000      1.0000     -0.1792     -8.2511E-04          
WELL2            1   102.8        20.00       0.000       20.00       0.000      1.0000     -0.1792     -8.2511E-04          
WELL3            1   102.8        20.00       0.000       20.00       0.000      1.0000     -0.1792     -8.2511E-04          
* Cell-to-well conductance values (CWC) may change during the course of a stress period
 
  Capacity Q calculations stopped iter. no.   4 due to hwell change less than HWtol for well WELL1               
  with Pump-Capacity Q =   -3237.00000000000     
  Capacity Q calculations stopped iter. no.   4 due to hwell change less than HWtol for well WELL2               
  with Pump-Capacity Q =   -3237.00000000000     
  Capacity Q calculations stopped iter. no.   4 due to hwell change less than HWtol for well WELL3               
  with Pump-Capacity Q =   -3237.00000000000     

 NO OUTPUT CONTROL FOR STRESS PERIOD    2   TIME STEP    9
 
  MNW2 WELL: WELL1                Qnet =   -2748.91280292409       < Qdes
   Q  updated because of Pump Capacity restraint and/or Seepage Face calculation
 
  MNW2 WELL: WELL2                Qnet =   -2789.74626446870       < Qdes
   Q  updated because of Pump Capacity restraint and/or Seepage Face calculation
 
  MNW2 WELL: WELL3                Qnet =   -2789.80478233232       < Qdes
   Q  updated because of Pump Capacity restraint and/or Seepage Face calculation
 
 SOLVING FOR HEAD 
 
MNW2 Well Conductance and Screen (Open Interval) Data
                              M O D E L  L A Y E R     W E L L  S C R E E N   Penetration    SKIN       CALCULATED
WELLID        Node    CWC*     top_elev    bott.elev    top_elev   bott.elev    fraction     COEFF.          B
WELL1            1   102.8        20.00       0.000       20.00       0.000      1.0000     -0.1792     -8.2511E-04          
WELL2            1   102.8        20.00       0.000       20.00       0.000      1.0000     -0.1792     -8.2511E-04          
WELL3            1   102.8        20.00       0.000       20.00       0.000      1.0000     -0.1792     -8.2511E-04          
* Cell-to-well conductance values (CWC) may change during the course of a stress period
 
  Capacity Q calculations stopped iter. no.   4 due to hwell change less than HWtol for well WELL1               
  with Pump-Capacity Q =   -3237.00000000000     
  Capacity Q calculations stopped iter. no.   4 due to hwell change less than HWtol for well WELL2               
  with Pump-Capacity Q =   -3237.00000000000     
  Capacity Q calculations stopped iter. no.   4 due to hwell change less than HWtol for well WELL3               
  with Pump-Capacity Q =   -3237.00000000000     

 OUTPUT CONTROL FOR STRESS PERIOD    2   TIME STEP   10
    SAVE HEAD FOR ALL LAYERS
    SAVE BUDGET
 UBDSV1 SAVING "         STORAGE" ON UNIT  53 AT TIME STEP 10, STRESS PERIOD   2
 UBDSV2 SAVING "   CONSTANT HEAD" ON UNIT  53 AT TIME STEP 10, STRESS PERIOD   2
 UBDSV1 SAVING "FLOW RIGHT FACE " ON UNIT  53 AT TIME STEP 10, STRESS PERIOD   2
 UBDSV1 SAVING "FLOW FRONT FACE " ON UNIT  53 AT TIME STEP 10, STRESS PERIOD   2
 UBDSV1 SAVING "FLOW LOWER FACE " ON UNIT  53 AT TIME STEP 10, STRESS PERIOD   2

 Nodal information for all MNW2 wells, PERIOD =    2  STEP =   10
WELLID                NODE   Lay   Row   Col        Totim        Q-node         hwell         hcell    Seepage elev.
WELL1                    1     2    50    50   1.010000E+02 -2.724538E+03  2.651570E+01  2.651569E+01
WELL2                    1     2    30    50   1.010000E+02 -2.768200E+03  2.694063E+01  2.694062E+01
WELL3                    1     2    70    50   1.010000E+02 -2.768269E+03  2.694129E+01  2.694129E+01

     Summary information for MNW2 wells
WELLID                    Totim            Qin           Qout           Qnet          hwell
 
  MNW2 WELL: WELL1                Qnet =   -2724.53832756856       < Qdes
   Q  updated because of Pump Capacity restraint and/or Seepage Face calculation
WELL1                   101.000       -2724.54        0.00000       -2724.54        26.5157    
 
  MNW2 WELL: WELL2                Qnet =   -2768.20043908507       < Qdes
   Q  updated because of Pump Capacity restraint and/or Seepage Face calculation
WELL2                   101.000       -2768.20        0.00000       -2768.20        26.9406    
 
  MNW2 WELL: WELL3                Qnet =   -2768.26910580113       < Qdes
   Q  updated because of Pump Capacity restraint and/or Seepage Face calculation
WELL3                   101.000       -2768.27        0.00000       -2768.27        26.9413    
 
 UBUDSV SAVING "            MNW2" ON UNIT 90 AT TIME STEP 10, STRESS PERIOD    2

 HEAD WILL BE SAVED ON UNIT   51 AT END OF TIME STEP   10, STRESS PERIOD    2
1
  VOLUMETRIC BUDGET FOR ENTIRE MODEL AT END OF TIME STEP   10, STRESS PERIOD   2
  ------------------------------------------------------------------------------

     CUMULATIVE VOLUMES      L**3       RATES FOR THIS TIME STEP      L**3/T
     ------------------                 ------------------------

           IN:                                      IN:
           ---                                      ---
             STORAGE =      862352.6250               STORAGE =        8221.1406
       CONSTANT HEAD =        1894.6809         CONSTANT HEAD =          39.8790
                MNW2 =           0.0000                  MNW2 =           0.0000

            TOTAL IN =      864247.3125              TOTAL IN =        8261.0195

          OUT:                                     OUT:
          ----                                     ----
             STORAGE =           0.0000               STORAGE =           0.0000
       CONSTANT HEAD =           0.0000         CONSTANT HEAD =           0.0000
                MNW2 =      864246.0000                  MNW2 =        8261.0078

           TOTAL OUT =      864246.0000             TOTAL OUT =        8261.0078

            IN - OUT =           1.3125              IN - OUT =       1.1719E-02

 PERCENT DISCREPANCY =           0.00     PERCENT DISCREPANCY =           0.00






         TIME SUMMARY AT END OF TIME STEP   10 IN STRESS PERIOD    2
                    SECONDS     MINUTES      HOURS       DAYS        YEARS
                    -----------------------------------------------------------
   TIME STEP LENGTH 8.64000E+05  14400.      240.00     10.0000     2.73785E-02
 STRESS PERIOD TIME 8.64000E+06 1.44000E+05  2400.0     100.000     0.27379    
         TOTAL TIME 8.72640E+06 1.45440E+05  2424.0      101.00     0.27652    
1
1
                            STRESS PERIOD NO.    3, LENGTH =   365.0000    
                            -----------------------------------------------

                              NUMBER OF TIME STEPS =    10

                               MULTIPLIER FOR DELT =     1.000

                            INITIAL TIME STEP SIZE =   36.50000    
 
 MNW2:            3  active wells in stress period            3
 
 
 WELLNAME = WELL1               
MNW2 Well well1                active, desired Q = -3.2370E+03 for stress period    3
 
Reference head for calculating lift =   1.0000E+01
Pump Capacity Multiplier =   1.0000E+00
HWtol =   1.0000E-02
     (Note: Solution may be sensitive to value of HWtol; adjust value if solution fails to converge.)
 
   Well Capacity Table
    Lift       Discharge
   80.000       0.000    
   75.000       809.0    
   70.000       1618.    
   65.000       2427.    
   60.000       3235.    
  1.00000       3236.    
   0.0000       3237.    
 
 WELLNAME = WELL2               
MNW2 Well well2                active, desired Q = -3.2370E+03 for stress period    3
 
Reference head for calculating lift =   1.0000E+01
Pump Capacity Multiplier =   1.0000E+00
HWtol =   1.0000E-02
     (Note: Solution may be sensitive to value of HWtol; adjust value if solution fails to converge.)
 
   Well Capacity Table
    Lift       Discharge
   80.000       0.000    
   75.000       809.0    
   70.000       1618.    
   65.000       2427.    
   60.000       3235.    
  1.00000       3236.    
   0.0000       3237.    
 
 WELLNAME = WELL3               
MNW2 Well well3                active, desired Q = -3.2370E+03 for stress period    3
 
Reference head for calculating lift =   1.0000E+01
Pump Capacity Multiplier =   1.0000E+00
HWtol =   1.0000E-02
     (Note: Solution may be sensitive to value of HWtol; adjust value if solution fails to converge.)
 
   Well Capacity Table
    Lift       Discharge
   80.000       0.000    
   75.000       809.0    
   70.000       1618.    
   65.000       2427.    
   60.000       3235.    
  1.00000       3236.    
   0.0000       3237.    
 
 SOLVING FOR HEAD 
 
MNW2 Well Conductance and Screen (Open Interval) Data
                              M O D E L  L A Y E R     W E L L  S C R E E N   Penetration    SKIN       CALCULATED
WELLID        Node    CWC*     top_elev    bott.elev    top_elev   bott.elev    fraction     COEFF.          B
WELL1            1   102.8        20.00       0.000       20.00       0.000      1.0000     -0.1792     -8.2511E-04          
WELL2            1   102.8        20.00       0.000       20.00       0.000      1.0000     -0.1792     -8.2511E-04          
WELL3            1   102.8        20.00       0.000       20.00       0.000      1.0000     -0.1792     -8.2511E-04          
* Cell-to-well conductance values (CWC) may change during the course of a stress period
 
  Capacity Q calculations stopped iter. no.   4 due to hwell change less than HWtol for well WELL1               
  with Pump-Capacity Q =   -3237.00000000000     
  Capacity Q calculations stopped iter. no.   4 due to hwell change less than HWtol for well WELL2               
  with Pump-Capacity Q =   -3237.00000000000     
  Capacity Q calculations stopped iter. no.   4 due to hwell change less than HWtol for well WELL3               
  with Pump-Capacity Q =   -3237.00000000000     

 NO OUTPUT CONTROL FOR STRESS PERIOD    3   TIME STEP    1
 
  MNW2 WELL: WELL1                Qnet =   -2644.84625005963       < Qdes
   Q  updated because of Pump Capacity restraint and/or Seepage Face calculation
 
  MNW2 WELL: WELL2                Qnet =   -2698.70131396332       < Qdes
   Q  updated because of Pump Capacity restraint and/or Seepage Face calculation
 
  MNW2 WELL: WELL3                Qnet =   -2698.81847449006       < Qdes
   Q  updated because of Pump Capacity restraint and/or Seepage Face calculation
 
 SOLVING FOR HEAD 
 
MNW2 Well Conductance and Screen (Open Interval) Data
                              M O D E L  L A Y E R     W E L L  S C R E E N   Penetration    SKIN       CALCULATED
WELLID        Node    CWC*     top_elev    bott.elev    top_elev   bott.elev    fraction     COEFF.          B
WELL1            1   102.8        20.00       0.000       20.00       0.000      1.0000     -0.1792     -8.2511E-04          
WELL2            1   102.8        20.00       0.000       20.00       0.000      1.0000     -0.1792     -8.2511E-04          
WELL3            1   102.8        20.00       0.000       20.00       0.000      1.0000     -0.1792     -8.2511E-04          
* Cell-to-well conductance values (CWC) may change during the course of a stress period
 
  Capacity Q calculations stopped iter. no.   4 due to hwell change less than HWtol for well WELL1               
  with Pump-Capacity Q =   -3237.00000000000     
  Capacity Q calculations stopped iter. no.   4 due to hwell change less than HWtol for well WELL2               
  with Pump-Capacity Q =   -3237.00000000000     
  Capacity Q calculations stopped iter. no.   4 due to hwell change less than HWtol for well WELL3               
  with Pump-Capacity Q =   -3237.00000000000     

 NO OUTPUT CONTROL FOR STRESS PERIOD    3   TIME STEP    2
 
  MNW2 WELL: WELL1                Qnet =   -2572.41724156445       < Qdes
   Q  updated because of Pump Capacity restraint and/or Seepage Face calculation
 
  MNW2 WELL: WELL2                Qnet =   -2636.34400325588       < Qdes
   Q  updated because of Pump Capacity restraint and/or Seepage Face calculation
 
  MNW2 WELL: WELL3                Qnet =   -2636.52180093518       < Qdes
   Q  updated because of Pump Capacity restraint and/or Seepage Face calculation
 
 SOLVING FOR HEAD 
 
MNW2 Well Conductance and Screen (Open Interval) Data
                              M O D E L  L A Y E R     W E L L  S C R E E N   Penetration    SKIN       CALCULATED
WELLID        Node    CWC*     top_elev    bott.elev    top_elev   bott.elev    fraction     COEFF.          B
WELL1            1   102.8        20.00       0.000       20.00       0.000      1.0000     -0.1792     -8.2511E-04          
WELL2            1   102.8        20.00       0.000       20.00       0.000      1.0000     -0.1792     -8.2511E-04          
WELL3            1   102.8        20.00       0.000       20.00       0.000      1.0000     -0.1792     -8.2511E-04          
* Cell-to-well conductance values (CWC) may change during the course of a stress period
 
  Capacity Q calculations stopped iter. no.   4 due to hwell change less than HWtol for well WELL1               
  with Pump-Capacity Q =   -3237.00000000000     
  Capacity Q calculations stopped iter. no.   4 due to hwell change less than HWtol for well WELL2               
  with Pump-Capacity Q =   -3237.00000000000     
  Capacity Q calculations stopped iter. no.   4 due to hwell change less than HWtol for well WELL3               
  with Pump-Capacity Q =   -3237.00000000000     

 NO OUTPUT CONTROL FOR STRESS PERIOD    3   TIME STEP    3
 
  MNW2 WELL: WELL1                Qnet =   -2508.55514215422       < Qdes
   Q  updated because of Pump Capacity restraint and/or Seepage Face calculation
 
  MNW2 WELL: WELL2                Qnet =   -2581.81356714922       < Qdes
   Q  updated because of Pump Capacity restraint and/or Seepage Face calculation
 
  MNW2 WELL: WELL3                Qnet =   -2582.06267355164       < Qdes
   Q  updated because of Pump Capacity restraint and/or Seepage Face calculation
 
 SOLVING FOR HEAD 
 
MNW2 Well Conductance and Screen (Open Interval) Data
                              M O D E L  L A Y E R     W E L L  S C R E E N   Penetration    SKIN       CALCULATED
WELLID        Node    CWC*     top_elev    bott.elev    top_elev   bott.elev    fraction     COEFF.          B
WELL1            1   102.8        20.00       0.000       20.00       0.000      1.0000     -0.1792     -8.2511E-04          
WELL2            1   102.8        20.00       0.000       20.00       0.000      1.0000     -0.1792     -8.2511E-04          
WELL3            1   102.8        20.00       0.000       20.00       0.000      1.0000     -0.1792     -8.2511E-04          
* Cell-to-well conductance values (CWC) may change during the course of a stress period
 
  Capacity Q calculations stopped iter. no.   4 due to hwell change less than HWtol for well WELL1               
  with Pump-Capacity Q =   -3237.00000000000     
  Capacity Q calculations stopped iter. no.   4 due to hwell change less than HWtol for well WELL2               
  with Pump-Capacity Q =   -3237.00000000000     
  Capacity Q calculations stopped iter. no.   4 due to hwell change less than HWtol for well WELL3               
  with Pump-Capacity Q =   -3237.00000000000     

 NO OUTPUT CONTROL FOR STRESS PERIOD    3   TIME STEP    4
 
  MNW2 WELL: WELL1                Qnet =   -2452.94914943264       < Qdes
   Q  updated because of Pump Capacity restraint and/or Seepage Face calculation
 
  MNW2 WELL: WELL2                Qnet =   -2534.64115604154       < Qdes
   Q  updated because of Pump Capacity restraint and/or Seepage Face calculation
 
  MNW2 WELL: WELL3                Qnet =   -2534.97191935297       < Qdes
   Q  updated because of Pump Capacity restraint and/or Seepage Face calculation
 
 SOLVING FOR HEAD 
 
MNW2 Well Conductance and Screen (Open Interval) Data
                              M O D E L  L A Y E R     W E L L  S C R E E N   Penetration    SKIN       CALCULATED
WELLID        Node    CWC*     top_elev    bott.elev    top_elev   bott.elev    fraction     COEFF.          B
WELL1            1   102.8        20.00       0.000       20.00       0.000      1.0000     -0.1792     -8.2511E-04          
WELL2            1   102.8        20.00       0.000       20.00       0.000      1.0000     -0.1792     -8.2511E-04          
WELL3            1   102.8        20.00       0.000       20.00       0.000      1.0000     -0.1792     -8.2511E-04          
* Cell-to-well conductance values (CWC) may change during the course of a stress period
 
  Capacity Q calculations stopped iter. no.   4 due to hwell change less than HWtol for well WELL1               
  with Pump-Capacity Q =   -3237.00000000000     
  Capacity Q calculations stopped iter. no.   4 due to hwell change less than HWtol for well WELL2               
  with Pump-Capacity Q =   -3237.00000000000     
  Capacity Q calculations stopped iter. no.   4 due to hwell change less than HWtol for well WELL3               
  with Pump-Capacity Q =   -3237.00000000000     

 NO OUTPUT CONTROL FOR STRESS PERIOD    3   TIME STEP    5
 
  MNW2 WELL: WELL1                Qnet =   -2403.79976074213       < Qdes
   Q  updated because of Pump Capacity restraint and/or Seepage Face calculation
 
  MNW2 WELL: WELL2                Qnet =   -2493.21240534495       < Qdes
   Q  updated because of Pump Capacity restraint and/or Seepage Face calculation
 
  MNW2 WELL: WELL3                Qnet =   -2493.63481279060       < Qdes
   Q  updated because of Pump Capacity restraint and/or Seepage Face calculation
 
 SOLVING FOR HEAD 
 
MNW2 Well Conductance and Screen (Open Interval) Data
                              M O D E L  L A Y E R     W E L L  S C R E E N   Penetration    SKIN       CALCULATED
WELLID        Node    CWC*     top_elev    bott.elev    top_elev   bott.elev    fraction     COEFF.          B
WELL1            1   102.8        20.00       0.000       20.00       0.000      1.0000     -0.1792     -8.2511E-04          
WELL2            1   102.8        20.00       0.000       20.00       0.000      1.0000     -0.1792     -8.2511E-04          
WELL3            1   102.8        20.00       0.000       20.00       0.000      1.0000     -0.1792     -8.2511E-04          
* Cell-to-well conductance values (CWC) may change during the course of a stress period
 
  Capacity Q calculations stopped iter. no.   4 due to hwell change less than HWtol for well WELL1               
  with Pump-Capacity Q =   -3237.00000000000     
  Capacity Q calculations stopped iter. no.   4 due to hwell change less than HWtol for well WELL2               
  with Pump-Capacity Q =   -3237.00000000000     
  Capacity Q calculations stopped iter. no.   4 due to hwell change less than HWtol for well WELL3               
  with Pump-Capacity Q =   -3237.00000000000     

 NO OUTPUT CONTROL FOR STRESS PERIOD    3   TIME STEP    6
 
  MNW2 WELL: WELL1                Qnet =   -2359.66940153424       < Qdes
   Q  updated because of Pump Capacity restraint and/or Seepage Face calculation
 
  MNW2 WELL: WELL2                Qnet =   -2456.14465727750       < Qdes
   Q  updated because of Pump Capacity restraint and/or Seepage Face calculation
 
  MNW2 WELL: WELL3                Qnet =   -2456.66744746247       < Qdes
   Q  updated because of Pump Capacity restraint and/or Seepage Face calculation
 
 SOLVING FOR HEAD 
 
MNW2 Well Conductance and Screen (Open Interval) Data
                              M O D E L  L A Y E R     W E L L  S C R E E N   Penetration    SKIN       CALCULATED
WELLID        Node    CWC*     top_elev    bott.elev    top_elev   bott.elev    fraction     COEFF.          B
WELL1            1   102.8        20.00       0.000       20.00       0.000      1.0000     -0.1792     -8.2511E-04          
WELL2            1   102.8        20.00       0.000       20.00       0.000      1.0000     -0.1792     -8.2511E-04          
WELL3            1   102.8        20.00       0.000       20.00       0.000      1.0000     -0.1792     -8.2511E-04          
* Cell-to-well conductance values (CWC) may change during the course of a stress period
 
  Capacity Q calculations stopped iter. no.   4 due to hwell change less than HWtol for well WELL1               
  with Pump-Capacity Q =   -3237.00000000000     
  Capacity Q calculations stopped iter. no.   4 due to hwell change less than HWtol for well WELL2               
  with Pump-Capacity Q =   -3237.00000000000     
  Capacity Q calculations stopped iter. no.   4 due to hwell change less than HWtol for well WELL3               
  with Pump-Capacity Q =   -3237.00000000000     

 NO OUTPUT CONTROL FOR STRESS PERIOD    3   TIME STEP    7
 
  MNW2 WELL: WELL1                Qnet =   -2319.64257333102       < Qdes
   Q  updated because of Pump Capacity restraint and/or Seepage Face calculation
 
  MNW2 WELL: WELL2                Qnet =   -2422.52530229163       < Qdes
   Q  updated because of Pump Capacity restraint and/or Seepage Face calculation
 
  MNW2 WELL: WELL3                Qnet =   -2423.15736599303       < Qdes
   Q  updated because of Pump Capacity restraint and/or Seepage Face calculation
 
 SOLVING FOR HEAD 
 
MNW2 Well Conductance and Screen (Open Interval) Data
                              M O D E L  L A Y E R     W E L L  S C R E E N   Penetration    SKIN       CALCULATED
WELLID        Node    CWC*     top_elev    bott.elev    top_elev   bott.elev    fraction     COEFF.          B
WELL1            1   102.8        20.00       0.000       20.00       0.000      1.0000     -0.1792     -8.2511E-04          
WELL2            1   102.8        20.00       0.000       20.00       0.000      1.0000     -0.1792     -8.2511E-04          
WELL3            1   102.8        20.00       0.000       20.00       0.000      1.0000     -0.1792     -8.2511E-04          
* Cell-to-well conductance values (CWC) may change during the course of a stress period
 
  Capacity Q calculations stopped iter. no.   4 due to hwell change less than HWtol for well WELL1               
  with Pump-Capacity Q =   -3237.00000000000     
  Capacity Q calculations stopped iter. no.   4 due to hwell change less than HWtol for well WELL2               
  with Pump-Capacity Q =   -3237.00000000000     
  Capacity Q calculations stopped iter. no.   4 due to hwell change less than HWtol for well WELL3               
  with Pump-Capacity Q =   -3237.00000000000     

 NO OUTPUT CONTROL FOR STRESS PERIOD    3   TIME STEP    8
 
  MNW2 WELL: WELL1                Qnet =   -2283.08253874882       < Qdes
   Q  updated because of Pump Capacity restraint and/or Seepage Face calculation
 
  MNW2 WELL: WELL2                Qnet =   -2391.73273349752       < Qdes
   Q  updated because of Pump Capacity restraint and/or Seepage Face calculation
 
  MNW2 WELL: WELL3                Qnet =   -2392.48160785334       < Qdes
   Q  updated because of Pump Capacity restraint and/or Seepage Face calculation
 
 SOLVING FOR HEAD 
 
MNW2 Well Conductance and Screen (Open Interval) Data
                              M O D E L  L A Y E R     W E L L  S C R E E N   Penetration    SKIN       CALCULATED
WELLID        Node    CWC*     top_elev    bott.elev    top_elev   bott.elev    fraction     COEFF.          B
WELL1            1   102.8        20.00       0.000       20.00       0.000      1.0000     -0.1792     -8.2511E-04          
WELL2            1   102.8        20.00       0.000       20.00       0.000      1.0000     -0.1792     -8.2511E-04          
WELL3            1   102.8        20.00       0.000       20.00       0.000      1.0000     -0.1792     -8.2511E-04          
* Cell-to-well conductance values (CWC) may change during the course of a stress period
 
  Capacity Q calculations stopped iter. no.   4 due to hwell change less than HWtol for well WELL1               
  with Pump-Capacity Q =   -3237.00000000000     
  Capacity Q calculations stopped iter. no.   4 due to hwell change less than HWtol for well WELL2               
  with Pump-Capacity Q =   -3237.00000000000     
  Capacity Q calculations stopped iter. no.   4 due to hwell change less than HWtol for well WELL3               
  with Pump-Capacity Q =   -3237.00000000000     

 NO OUTPUT CONTROL FOR STRESS PERIOD    3   TIME STEP    9
 
  MNW2 WELL: WELL1                Qnet =   -2249.50221511452       < Qdes
   Q  updated because of Pump Capacity restraint and/or Seepage Face calculation
 
  MNW2 WELL: WELL2                Qnet =   -2363.31244419308       < Qdes
   Q  updated because of Pump Capacity restraint and/or Seepage Face calculation
 
  MNW2 WELL: WELL3                Qnet =   -2364.18502571251       < Qdes
   Q  updated because of Pump Capacity restraint and/or Seepage Face calculation
 
 SOLVING FOR HEAD 
 
MNW2 Well Conductance and Screen (Open Interval) Data
                              M O D E L  L A Y E R     W E L L  S C R E E N   Penetration    SKIN       CALCULATED
WELLID        Node    CWC*     top_elev    bott.elev    top_elev   bott.elev    fraction     COEFF.          B
WELL1            1   102.8        20.00       0.000       20.00       0.000      1.0000     -0.1792     -8.2511E-04          
WELL2            1   102.8        20.00       0.000       20.00       0.000      1.0000     -0.1792     -8.2511E-04          
WELL3            1   102.8        20.00       0.000       20.00       0.000      1.0000     -0.1792     -8.2511E-04          
* Cell-to-well conductance values (CWC) may change during the course of a stress period
 
  Capacity Q calculations stopped iter. no.   4 due to hwell change less than HWtol for well WELL1               
  with Pump-Capacity Q =   -3237.00000000000     
  Capacity Q calculations stopped iter. no.   4 due to hwell change less than HWtol for well WELL2               
  with Pump-Capacity Q =   -3237.00000000000     
  Capacity Q calculations stopped iter. no.   4 due to hwell change less than HWtol for well WELL3               
  with Pump-Capacity Q =   -3237.00000000000     

 OUTPUT CONTROL FOR STRESS PERIOD    3   TIME STEP   10
    SAVE HEAD FOR ALL LAYERS
    SAVE BUDGET
 UBDSV1 SAVING "         STORAGE" ON UNIT  53 AT TIME STEP 10, STRESS PERIOD   3
 UBDSV2 SAVING "   CONSTANT HEAD" ON UNIT  53 AT TIME STEP 10, STRESS PERIOD   3
 UBDSV1 SAVING "FLOW RIGHT FACE " ON UNIT  53 AT TIME STEP 10, STRESS PERIOD   3
 UBDSV1 SAVING "FLOW FRONT FACE " ON UNIT  53 AT TIME STEP 10, STRESS PERIOD   3
 UBDSV1 SAVING "FLOW LOWER FACE " ON UNIT  53 AT TIME STEP 10, STRESS PERIOD   3

 Nodal information for all MNW2 wells, PERIOD =    3  STEP =   10
WELLID                NODE   Lay   Row   Col        Totim        Q-node         hwell         hcell    Seepage elev.
WELL1                    1     2    50    50   4.660000E+02 -2.218510E+03  2.159094E+01  2.159094E+01
WELL2                    1     2    30    50   4.660000E+02 -2.336911E+03  2.274324E+01  2.274325E+01
WELL3                    1     2    70    50   4.660000E+02 -2.337914E+03  2.275300E+01  2.275300E+01

     Summary information for MNW2 wells
WELLID                    Totim            Qin           Qout           Qnet          hwell
 
  MNW2 WELL: WELL1                Qnet =   -2218.50960033999       < Qdes
   Q  updated because of Pump Capacity restraint and/or Seepage Face calculation
WELL1                   466.000       -2218.51        0.00000       -2218.51        21.5909    
 
  MNW2 WELL: WELL2                Qnet =   -2336.91144709586       < Qdes
   Q  updated because of Pump Capacity restraint and/or Seepage Face calculation
WELL2                   466.000       -2336.91        0.00000       -2336.91        22.7432    
 
  MNW2 WELL: WELL3                Qnet =   -2337.91380262843       < Qdes
   Q  updated because of Pump Capacity restraint and/or Seepage Face calculation
WELL3                   466.000       -2337.91        0.00000       -2337.91        22.7530    
 
 UBUDSV SAVING "            MNW2" ON UNIT 90 AT TIME STEP 10, STRESS PERIOD    3

 HEAD WILL BE SAVED ON UNIT   51 AT END OF TIME STEP   10, STRESS PERIOD    3
1
  VOLUMETRIC BUDGET FOR ENTIRE MODEL AT END OF TIME STEP   10, STRESS PERIOD   3
  ------------------------------------------------------------------------------

     CUMULATIVE VOLUMES      L**3       RATES FOR THIS TIME STEP      L**3/T
     ------------------                 ------------------------

           IN:                                      IN:
           ---                                      ---
             STORAGE =     3477314.0000               STORAGE =        6489.2041
       CONSTANT HEAD =       82425.4844         CONSTANT HEAD =         404.1684
                MNW2 =           0.0000                  MNW2 =           0.0000

            TOTAL IN =     3559739.5000              TOTAL IN =        6893.3726

          OUT:                                     OUT:
          ----                                     ----
             STORAGE =           0.0000               STORAGE =           0.0000
       CONSTANT HEAD =           0.0000         CONSTANT HEAD =           0.0000
                MNW2 =     3559724.2500                  MNW2 =        6893.3350

           TOTAL OUT =     3559724.2500             TOTAL OUT =        6893.3350

            IN - OUT =          15.2500              IN - OUT =       3.7598E-02

 PERCENT DISCREPANCY =           0.00     PERCENT DISCREPANCY =           0.00






         TIME SUMMARY AT END OF TIME STEP   10 IN STRESS PERIOD    3
                    SECONDS     MINUTES      HOURS       DAYS        YEARS
                    -----------------------------------------------------------
   TIME STEP LENGTH 3.15360E+06  52560.      876.00      36.500     9.99316E-02
 STRESS PERIOD TIME 3.15360E+07 5.25600E+05  8760.0      365.00     0.99932    
         TOTAL TIME 4.02624E+07 6.71040E+05  11184.      466.00      1.2758    
1
1
                            STRESS PERIOD NO.    4, LENGTH =   365.0000    
                            -----------------------------------------------

                              NUMBER OF TIME STEPS =    10

                               MULTIPLIER FOR DELT =     1.000

                            INITIAL TIME STEP SIZE =   36.50000    
 
 MNW2:            3  active wells in stress period            4
 
 
 WELLNAME = WELL1               
MNW2 Well well1                active, desired Q = -3.2370E+03 for stress period    4
 
Reference head for calculating lift =   1.0000E+01
Pump Capacity Multiplier =   1.0000E+00
HWtol =   1.0000E-02
     (Note: Solution may be sensitive to value of HWtol; adjust value if solution fails to converge.)
 
   Well Capacity Table
    Lift       Discharge
   80.000       0.000    
   75.000       809.0    
   70.000       1618.    
   65.000       2427.    
   60.000       3235.    
  1.00000       3236.    
   0.0000       3237.    
 
 WELLNAME = WELL2               
MNW2 Well well2                active, desired Q = -3.2370E+03 for stress period    4
 
Reference head for calculating lift =   1.0000E+01
Pump Capacity Multiplier =   1.0000E+00
HWtol =   1.0000E-02
     (Note: Solution may be sensitive to value of HWtol; adjust value if solution fails to converge.)
 
   Well Capacity Table
    Lift       Discharge
   80.000       0.000    
   75.000       809.0    
   70.000       1618.    
   65.000       2427.    
   60.000       3235.    
  1.00000       3236.    
   0.0000       3237.    
 
 WELLNAME = WELL3               
MNW2 Well well3                active, desired Q = -3.2370E+03 for stress period    4
 
Reference head for calculating lift =   1.0000E+01
Pump Capacity Multiplier =   1.0000E+00
HWtol =   1.0000E-02
     (Note: Solution may be sensitive to value of HWtol; adjust value if solution fails to converge.)
 
   Well Capacity Table
    Lift       Discharge
   80.000       0.000    
   75.000       809.0    
   70.000       1618.    
   65.000       2427.    
   60.000       3235.    
  1.00000       3236.    
   0.0000       3237.    
 
 SOLVING FOR HEAD 
 
MNW2 Well Conductance and Screen (Open Interval) Data
                              M O D E L  L A Y E R     W E L L  S C R E E N   Penetration    SKIN       CALCULATED
WELLID        Node    CWC*     top_elev    bott.elev    top_elev   bott.elev    fraction     COEFF.          B
WELL1            1   102.8        20.00       0.000       20.00       0.000      1.0000     -0.1792     -8.2511E-04          
WELL2            1   102.8        20.00       0.000       20.00       0.000      1.0000     -0.1792     -8.2511E-04          
WELL3            1   102.8        20.00       0.000       20.00       0.000      1.0000     -0.1792     -8.2511E-04          
* Cell-to-well conductance values (CWC) may change during the course of a stress period
 
  Capacity Q calculations stopped iter. no.   4 due to hwell change less than HWtol for well WELL1               
  with Pump-Capacity Q =   -3237.00000000000     
  Capacity Q calculations stopped iter. no.   4 due to hwell change less than HWtol for well WELL2               
  with Pump-Capacity Q =   -3237.00000000000     
  Capacity Q calculations stopped iter. no.   4 due to hwell change less than HWtol for well WELL3               
  with Pump-Capacity Q =   -3237.00000000000     

 NO OUTPUT CONTROL FOR STRESS PERIOD    4   TIME STEP    1
 
  MNW2 WELL: WELL1                Qnet =   -2189.78551827003       < Qdes
   Q  updated because of Pump Capacity restraint and/or Seepage Face calculation
 
  MNW2 WELL: WELL2                Qnet =   -2312.25333634013       < Qdes
   Q  updated because of Pump Capacity restraint and/or Seepage Face calculation
 
  MNW2 WELL: WELL3                Qnet =   -2313.39071088147       < Qdes
   Q  updated because of Pump Capacity restraint and/or Seepage Face calculation
 
 SOLVING FOR HEAD 
 
MNW2 Well Conductance and Screen (Open Interval) Data
                              M O D E L  L A Y E R     W E L L  S C R E E N   Penetration    SKIN       CALCULATED
WELLID        Node    CWC*     top_elev    bott.elev    top_elev   bott.elev    fraction     COEFF.          B
WELL1            1   102.8        20.00       0.000       20.00       0.000      1.0000     -0.1792     -8.2511E-04          
WELL2            1   102.8        20.00       0.000       20.00       0.000      1.0000     -0.1792     -8.2511E-04          
WELL3            1   102.8        20.00       0.000       20.00       0.000      1.0000     -0.1792     -8.2511E-04          
* Cell-to-well conductance values (CWC) may change during the course of a stress period
 
  Capacity Q calculations stopped iter. no.   4 due to hwell change less than HWtol for well WELL1               
  with Pump-Capacity Q =   -3237.00000000000     
  Capacity Q calculations stopped iter. no.   4 due to hwell change less than HWtol for well WELL2               
  with Pump-Capacity Q =   -3237.00000000000     
  Capacity Q calculations stopped iter. no.   4 due to hwell change less than HWtol for well WELL3               
  with Pump-Capacity Q =   -3237.00000000000     

 NO OUTPUT CONTROL FOR STRESS PERIOD    4   TIME STEP    2
 
  MNW2 WELL: WELL1                Qnet =   -2163.06280463398       < Qdes
   Q  updated because of Pump Capacity restraint and/or Seepage Face calculation
 
  MNW2 WELL: WELL2                Qnet =   -2289.11375988621       < Qdes
   Q  updated because of Pump Capacity restraint and/or Seepage Face calculation
 
  MNW2 WELL: WELL3                Qnet =   -2290.39060889440       < Qdes
   Q  updated because of Pump Capacity restraint and/or Seepage Face calculation
 
 SOLVING FOR HEAD 
 
MNW2 Well Conductance and Screen (Open Interval) Data
                              M O D E L  L A Y E R     W E L L  S C R E E N   Penetration    SKIN       CALCULATED
WELLID        Node    CWC*     top_elev    bott.elev    top_elev   bott.elev    fraction     COEFF.          B
WELL1            1   102.8        20.00       0.000       20.00       0.000      1.0000     -0.1792     -8.2511E-04          
WELL2            1   102.8        20.00       0.000       20.00       0.000      1.0000     -0.1792     -8.2511E-04          
WELL3            1   102.8        20.00       0.000       20.00       0.000      1.0000     -0.1792     -8.2511E-04          
* Cell-to-well conductance values (CWC) may change during the course of a stress period
 
  Capacity Q calculations stopped iter. no.   4 due to hwell change less than HWtol for well WELL1               
  with Pump-Capacity Q =   -3237.00000000000     
  Capacity Q calculations stopped iter. no.   4 due to hwell change less than HWtol for well WELL2               
  with Pump-Capacity Q =   -3237.00000000000     
  Capacity Q calculations stopped iter. no.   4 due to hwell change less than HWtol for well WELL3               
  with Pump-Capacity Q =   -3237.00000000000     

 NO OUTPUT CONTROL FOR STRESS PERIOD    4   TIME STEP    3
 
  MNW2 WELL: WELL1                Qnet =   -2138.11649040747       < Qdes
   Q  updated because of Pump Capacity restraint and/or Seepage Face calculation
 
  MNW2 WELL: WELL2                Qnet =   -2267.30980268681       < Qdes
   Q  updated because of Pump Capacity restraint and/or Seepage Face calculation
 
  MNW2 WELL: WELL3                Qnet =   -2268.72980977664       < Qdes
   Q  updated because of Pump Capacity restraint and/or Seepage Face calculation
 
 SOLVING FOR HEAD 
 
MNW2 Well Conductance and Screen (Open Interval) Data
                              M O D E L  L A Y E R     W E L L  S C R E E N   Penetration    SKIN       CALCULATED
WELLID        Node    CWC*     top_elev    bott.elev    top_elev   bott.elev    fraction     COEFF.          B
WELL1            1   102.8        20.00       0.000       20.00       0.000      1.0000     -0.1792     -8.2511E-04          
WELL2            1   102.8        20.00       0.000       20.00       0.000      1.0000     -0.1792     -8.2511E-04          
WELL3            1   102.8        20.00       0.000       20.00       0.000      1.0000     -0.1792     -8.2511E-04          
* Cell-to-well conductance values (CWC) may change during the course of a stress period
 
  Capacity Q calculations stopped iter. no.   4 due to hwell change less than HWtol for well WELL1               
  with Pump-Capacity Q =   -3237.00000000000     
  Capacity Q calculations stopped iter. no.   4 due to hwell change less than HWtol for well WELL2               
  with Pump-Capacity Q =   -3237.00000000000     
  Capacity Q calculations stopped iter. no.   4 due to hwell change less than HWtol for well WELL3               
  with Pump-Capacity Q =   -3237.00000000000     

 NO OUTPUT CONTROL FOR STRESS PERIOD    4   TIME STEP    4
 
  MNW2 WELL: WELL1                Qnet =   -2114.75480664122       < Qdes
   Q  updated because of Pump Capacity restraint and/or Seepage Face calculation
 
  MNW2 WELL: WELL2                Qnet =   -2246.68979312365       < Qdes
   Q  updated because of Pump Capacity restraint and/or Seepage Face calculation
 
  MNW2 WELL: WELL3                Qnet =   -2248.25590764743       < Qdes
   Q  updated because of Pump Capacity restraint and/or Seepage Face calculation
 
 SOLVING FOR HEAD 
 
MNW2 Well Conductance and Screen (Open Interval) Data
                              M O D E L  L A Y E R     W E L L  S C R E E N   Penetration    SKIN       CALCULATED
WELLID        Node    CWC*     top_elev    bott.elev    top_elev   bott.elev    fraction     COEFF.          B
WELL1            1   102.8        20.00       0.000       20.00       0.000      1.0000     -0.1792     -8.2511E-04          
WELL2            1   102.8        20.00       0.000       20.00       0.000      1.0000     -0.1792     -8.2511E-04          
WELL3            1   102.8        20.00       0.000       20.00       0.000      1.0000     -0.1792     -8.2511E-04          
* Cell-to-well conductance values (CWC) may change during the course of a stress period
 
  Capacity Q calculations stopped iter. no.   4 due to hwell change less than HWtol for well WELL1               
  with Pump-Capacity Q =   -3237.00000000000     
  Capacity Q calculations stopped iter. no.   4 due to hwell change less than HWtol for well WELL2               
  with Pump-Capacity Q =   -3237.00000000000     
  Capacity Q calculations stopped iter. no.   4 due to hwell change less than HWtol for well WELL3               
  with Pump-Capacity Q =   -3237.00000000000     

 NO OUTPUT CONTROL FOR STRESS PERIOD    4   TIME STEP    5
 
  MNW2 WELL: WELL1                Qnet =   -2092.81278521948       < Qdes
   Q  updated because of Pump Capacity restraint and/or Seepage Face calculation
 
  MNW2 WELL: WELL2                Qnet =   -2227.12672037013       < Qdes
   Q  updated because of Pump Capacity restraint and/or Seepage Face calculation
 
  MNW2 WELL: WELL3                Qnet =   -2228.84119355709       < Qdes
   Q  updated because of Pump Capacity restraint and/or Seepage Face calculation
 
 SOLVING FOR HEAD 
 
MNW2 Well Conductance and Screen (Open Interval) Data
                              M O D E L  L A Y E R     W E L L  S C R E E N   Penetration    SKIN       CALCULATED
WELLID        Node    CWC*     top_elev    bott.elev    top_elev   bott.elev    fraction     COEFF.          B
WELL1            1   102.8        20.00       0.000       20.00       0.000      1.0000     -0.1792     -8.2511E-04          
WELL2            1   102.8        20.00       0.000       20.00       0.000      1.0000     -0.1792     -8.2511E-04          
WELL3            1   102.8        20.00       0.000       20.00       0.000      1.0000     -0.1792     -8.2511E-04          
* Cell-to-well conductance values (CWC) may change during the course of a stress period
 

 CELL CONVERSIONS FOR ITER.=  2  LAYER=  1  STEP=  6  PERIOD=   4   (ROW,COL)
    DRY( 50, 50)   
  Capacity Q calculations stopped iter. no.   4 due to hwell change less than HWtol for well WELL1               
  with Pump-Capacity Q =   -3237.00000000000     
  Capacity Q calculations stopped iter. no.   4 due to hwell change less than HWtol for well WELL2               
  with Pump-Capacity Q =   -3237.00000000000     
  Capacity Q calculations stopped iter. no.   4 due to hwell change less than HWtol for well WELL3               
  with Pump-Capacity Q =   -3237.00000000000     

 NO OUTPUT CONTROL FOR STRESS PERIOD    4   TIME STEP    6
 
  MNW2 WELL: WELL1                Qnet =   -2071.86589767596       < Qdes
   Q  updated because of Pump Capacity restraint and/or Seepage Face calculation
 
  MNW2 WELL: WELL2                Qnet =   -2208.51239869646       < Qdes
   Q  updated because of Pump Capacity restraint and/or Seepage Face calculation
 
  MNW2 WELL: WELL3                Qnet =   -2210.37682171974       < Qdes
   Q  updated because of Pump Capacity restraint and/or Seepage Face calculation
 
 SOLVING FOR HEAD 
 
MNW2 Well Conductance and Screen (Open Interval) Data
                              M O D E L  L A Y E R     W E L L  S C R E E N   Penetration    SKIN       CALCULATED
WELLID        Node    CWC*     top_elev    bott.elev    top_elev   bott.elev    fraction     COEFF.          B
WELL1            1   102.8        20.00       0.000       20.00       0.000      1.0000     -0.1792     -8.2511E-04          
WELL2            1   102.8        20.00       0.000       20.00       0.000      1.0000     -0.1792     -8.2511E-04          
WELL3            1   102.8        20.00       0.000       20.00       0.000      1.0000     -0.1792     -8.2511E-04          
* Cell-to-well conductance values (CWC) may change during the course of a stress period
 
  Capacity Q calculations stopped iter. no.   4 due to hwell change less than HWtol for well WELL1               
  with Pump-Capacity Q =   -3237.00000000000     
  Capacity Q calculations stopped iter. no.   4 due to hwell change less than HWtol for well WELL2               
  with Pump-Capacity Q =   -3237.00000000000     
  Capacity Q calculations stopped iter. no.   4 due to hwell change less than HWtol for well WELL3               
  with Pump-Capacity Q =   -3237.00000000000     

 NO OUTPUT CONTROL FOR STRESS PERIOD    4   TIME STEP    7
 
  MNW2 WELL: WELL1                Qnet =   -2052.46327613934       < Qdes
   Q  updated because of Pump Capacity restraint and/or Seepage Face calculation
 
  MNW2 WELL: WELL2                Qnet =   -2190.75577960329       < Qdes
   Q  updated because of Pump Capacity restraint and/or Seepage Face calculation
 
  MNW2 WELL: WELL3                Qnet =   -2192.77116413915       < Qdes
   Q  updated because of Pump Capacity restraint and/or Seepage Face calculation
 
 SOLVING FOR HEAD 
 
MNW2 Well Conductance and Screen (Open Interval) Data
                              M O D E L  L A Y E R     W E L L  S C R E E N   Penetration    SKIN       CALCULATED
WELLID        Node    CWC*     top_elev    bott.elev    top_elev   bott.elev    fraction     COEFF.          B
WELL1            1   102.8        20.00       0.000       20.00       0.000      1.0000     -0.1792     -8.2511E-04          
WELL2            1   102.8        20.00       0.000       20.00       0.000      1.0000     -0.1792     -8.2511E-04          
WELL3            1   102.8        20.00       0.000       20.00       0.000      1.0000     -0.1792     -8.2511E-04          
* Cell-to-well conductance values (CWC) may change during the course of a stress period
 
  Capacity Q calculations stopped iter. no.   4 due to hwell change less than HWtol for well WELL1               
  with Pump-Capacity Q =   -3237.00000000000     
  Capacity Q calculations stopped iter. no.   4 due to hwell change less than HWtol for well WELL2               
  with Pump-Capacity Q =   -3237.00000000000     
  Capacity Q calculations stopped iter. no.   4 due to hwell change less than HWtol for well WELL3               
  with Pump-Capacity Q =   -3237.00000000000     

 NO OUTPUT CONTROL FOR STRESS PERIOD    4   TIME STEP    8
 
  MNW2 WELL: WELL1                Qnet =   -2034.07390360230       < Qdes
   Q  updated because of Pump Capacity restraint and/or Seepage Face calculation
 
  MNW2 WELL: WELL2                Qnet =   -2173.77719530967       < Qdes
   Q  updated because of Pump Capacity restraint and/or Seepage Face calculation
 
  MNW2 WELL: WELL3                Qnet =   -2175.94396770184       < Qdes
   Q  updated because of Pump Capacity restraint and/or Seepage Face calculation
 
 SOLVING FOR HEAD 
 
MNW2 Well Conductance and Screen (Open Interval) Data
                              M O D E L  L A Y E R     W E L L  S C R E E N   Penetration    SKIN       CALCULATED
WELLID        Node    CWC*     top_elev    bott.elev    top_elev   bott.elev    fraction     COEFF.          B
WELL1            1   102.8        20.00       0.000       20.00       0.000      1.0000     -0.1792     -8.2511E-04          
WELL2            1   102.8        20.00       0.000       20.00       0.000      1.0000     -0.1792     -8.2511E-04          
WELL3            1   102.8        20.00       0.000       20.00       0.000      1.0000     -0.1792     -8.2511E-04          
* Cell-to-well conductance values (CWC) may change during the course of a stress period
 
  Capacity Q calculations stopped iter. no.   4 due to hwell change less than HWtol for well WELL1               
  with Pump-Capacity Q =   -3237.00000000000     
  Capacity Q calculations stopped iter. no.   4 due to hwell change less than HWtol for well WELL2               
  with Pump-Capacity Q =   -3237.00000000000     
  Capacity Q calculations stopped iter. no.   4 due to hwell change less than HWtol for well WELL3               
  with Pump-Capacity Q =   -3237.00000000000     

 NO OUTPUT CONTROL FOR STRESS PERIOD    4   TIME STEP    9
 
  MNW2 WELL: WELL1                Qnet =   -2016.61498735546       < Qdes
   Q  updated because of Pump Capacity restraint and/or Seepage Face calculation
 
  MNW2 WELL: WELL2                Qnet =   -2157.50821307523       < Qdes
   Q  updated because of Pump Capacity restraint and/or Seepage Face calculation
 
  MNW2 WELL: WELL3                Qnet =   -2159.82638816971       < Qdes
   Q  updated because of Pump Capacity restraint and/or Seepage Face calculation
 
 SOLVING FOR HEAD 
 
MNW2 Well Conductance and Screen (Open Interval) Data
                              M O D E L  L A Y E R     W E L L  S C R E E N   Penetration    SKIN       CALCULATED
WELLID        Node    CWC*     top_elev    bott.elev    top_elev   bott.elev    fraction     COEFF.          B
WELL1            1   102.8        20.00       0.000       20.00       0.000      1.0000     -0.1792     -8.2511E-04          
WELL2            1   102.8        20.00       0.000       20.00       0.000      1.0000     -0.1792     -8.2511E-04          
WELL3            1   102.8        20.00       0.000       20.00       0.000      1.0000     -0.1792     -8.2511E-04          
* Cell-to-well conductance values (CWC) may change during the course of a stress period
 
  Capacity Q calculations stopped iter. no.   4 due to hwell change less than HWtol for well WELL1               
  with Pump-Capacity Q =   -3237.00000000000     
  Capacity Q calculations stopped iter. no.   4 due to hwell change less than HWtol for well WELL2               
  with Pump-Capacity Q =   -3237.00000000000     
  Capacity Q calculations stopped iter. no.   4 due to hwell change less than HWtol for well WELL3               
  with Pump-Capacity Q =   -3237.00000000000     

 OUTPUT CONTROL FOR STRESS PERIOD    4   TIME STEP   10
    SAVE HEAD FOR ALL LAYERS
    SAVE BUDGET
 UBDSV1 SAVING "         STORAGE" ON UNIT  53 AT TIME STEP 10, STRESS PERIOD   4
 UBDSV2 SAVING "   CONSTANT HEAD" ON UNIT  53 AT TIME STEP 10, STRESS PERIOD   4
 UBDSV1 SAVING "FLOW RIGHT FACE " ON UNIT  53 AT TIME STEP 10, STRESS PERIOD   4
 UBDSV1 SAVING "FLOW FRONT FACE " ON UNIT  53 AT TIME STEP 10, STRESS PERIOD   4
 UBDSV1 SAVING "FLOW LOWER FACE " ON UNIT  53 AT TIME STEP 10, STRESS PERIOD   4

 Nodal information for all MNW2 wells, PERIOD =    4  STEP =   10
WELLID                NODE   Lay   Row   Col        Totim        Q-node         hwell         hcell    Seepage elev.
WELL1                    1     2    50    50   8.310000E+02 -2.000009E+03  1.946444E+01  1.946444E+01
WELL2                    1     2    30    50   8.310000E+02 -2.141889E+03  2.084525E+01  2.084525E+01
WELL3                    1     2    70    50   8.310000E+02 -2.144357E+03  2.086927E+01  2.086927E+01

     Summary information for MNW2 wells
WELLID                    Totim            Qin           Qout           Qnet          hwell
 
  MNW2 WELL: WELL1                Qnet =   -2000.00851700310       < Qdes
   Q  updated because of Pump Capacity restraint and/or Seepage Face calculation
WELL1                   831.000       -2000.01        0.00000       -2000.01        19.4644    
 
  MNW2 WELL: WELL2                Qnet =   -2141.88857908237       < Qdes
   Q  updated because of Pump Capacity restraint and/or Seepage Face calculation
WELL2                   831.000       -2141.89        0.00000       -2141.89        20.8452    
 
  MNW2 WELL: WELL3                Qnet =   -2144.35747327752       < Qdes
   Q  updated because of Pump Capacity restraint and/or Seepage Face calculation
WELL3                   831.000       -2144.36        0.00000       -2144.36        20.8693    
 
 UBUDSV SAVING "            MNW2" ON UNIT 90 AT TIME STEP 10, STRESS PERIOD    4

 HEAD WILL BE SAVED ON UNIT   51 AT END OF TIME STEP   10, STRESS PERIOD    4
1
  VOLUMETRIC BUDGET FOR ENTIRE MODEL AT END OF TIME STEP   10, STRESS PERIOD   4
  ------------------------------------------------------------------------------

     CUMULATIVE VOLUMES      L**3       RATES FOR THIS TIME STEP      L**3/T
     ------------------                 ------------------------

           IN:                                      IN:
           ---                                      ---
             STORAGE =     5620536.0000               STORAGE =        5417.9434
       CONSTANT HEAD =      323447.6250         CONSTANT HEAD =         868.3491
                MNW2 =           0.0000                  MNW2 =           0.0000

            TOTAL IN =     5943983.5000              TOTAL IN =        6286.2925

          OUT:                                     OUT:
          ----                                     ----
             STORAGE =           0.0000               STORAGE =           0.0000
       CONSTANT HEAD =           0.0000         CONSTANT HEAD =           0.0000
                MNW2 =     5943954.5000                  MNW2 =        6286.2544

           TOTAL OUT =     5943954.5000             TOTAL OUT =        6286.2544

            IN - OUT =          29.0000              IN - OUT =       3.8086E-02

 PERCENT DISCREPANCY =           0.00     PERCENT DISCREPANCY =           0.00






         TIME SUMMARY AT END OF TIME STEP   10 IN STRESS PERIOD    4
                    SECONDS     MINUTES      HOURS       DAYS        YEARS
                    -----------------------------------------------------------
   TIME STEP LENGTH 3.15360E+06  52560.      876.00      36.500     9.99316E-02
 STRESS PERIOD TIME 3.15360E+07 5.25600E+05  8760.0      365.00     0.99932    
         TOTAL TIME 7.17984E+07 1.19664E+06  19944.      831.00      2.2752    
1
1
                            STRESS PERIOD NO.    5, LENGTH =   365.0000    
                            -----------------------------------------------

                              NUMBER OF TIME STEPS =    10

                               MULTIPLIER FOR DELT =     1.000

                            INITIAL TIME STEP SIZE =   36.50000    
 
 MNW2:            3  active wells in stress period            5
 
 
 WELLNAME = WELL1               
MNW2 Well well1                active, desired Q = -3.2370E+03 for stress period    5
 
Reference head for calculating lift =   1.0000E+01
Pump Capacity Multiplier =   1.0000E+00
HWtol =   1.0000E-02
     (Note: Solution may be sensitive to value of HWtol; adjust value if solution fails to converge.)
 
   Well Capacity Table
    Lift       Discharge
   80.000       0.000    
   75.000       809.0    
   70.000       1618.    
   65.000       2427.    
   60.000       3235.    
  1.00000       3236.    
   0.0000       3237.    
 
 WELLNAME = WELL2               
MNW2 Well well2                active, desired Q = -3.2370E+03 for stress period    5
 
Reference head for calculating lift =   1.0000E+01
Pump Capacity Multiplier =   1.0000E+00
HWtol =   1.0000E-02
     (Note: Solution may be sensitive to value of HWtol; adjust value if solution fails to converge.)
 
   Well Capacity Table
    Lift       Discharge
   80.000       0.000    
   75.000       809.0    
   70.000       1618.    
   65.000       2427.    
   60.000       3235.    
  1.00000       3236.    
   0.0000       3237.    
 
 WELLNAME = WELL3               
MNW2 Well well3                active, desired Q = -3.2370E+03 for stress period    5
 
Reference head for calculating lift =   1.0000E+01
Pump Capacity Multiplier =   1.0000E+00
HWtol =   1.0000E-02
     (Note: Solution may be sensitive to value of HWtol; adjust value if solution fails to converge.)
 
   Well Capacity Table
    Lift       Discharge
   80.000       0.000    
   75.000       809.0    
   70.000       1618.    
   65.000       2427.    
   60.000       3235.    
  1.00000       3236.    
   0.0000       3237.    
 
 SOLVING FOR HEAD 
 
MNW2 Well Conductance and Screen (Open Interval) Data
                              M O D E L  L A Y E R     W E L L  S C R E E N   Penetration    SKIN       CALCULATED
WELLID        Node    CWC*     top_elev    bott.elev    top_elev   bott.elev    fraction     COEFF.          B
WELL1            1   102.8        20.00       0.000       20.00       0.000      1.0000     -0.1792     -8.2511E-04          
WELL2            1   102.8        20.00       0.000       20.00       0.000      1.0000     -0.1792     -8.2511E-04          
WELL3            1   102.8        20.00       0.000       20.00       0.000      1.0000     -0.1792     -8.2511E-04          
* Cell-to-well conductance values (CWC) may change during the course of a stress period
 
  Capacity Q calculations stopped iter. no.   4 due to hwell change less than HWtol for well WELL1               
  with Pump-Capacity Q =   -3237.00000000000     
  Capacity Q calculations stopped iter. no.   4 due to hwell change less than HWtol for well WELL2               
  with Pump-Capacity Q =   -3237.00000000000     
  Capacity Q calculations stopped iter. no.   4 due to hwell change less than HWtol for well WELL3               
  with Pump-Capacity Q =   -3237.00000000000     

 NO OUTPUT CONTROL FOR STRESS PERIOD    5   TIME STEP    1
 
  MNW2 WELL: WELL1                Qnet =   -1984.18264506554       < Qdes
   Q  updated because of Pump Capacity restraint and/or Seepage Face calculation
 
  MNW2 WELL: WELL2                Qnet =   -2126.86557217384       < Qdes
   Q  updated because of Pump Capacity restraint and/or Seepage Face calculation
 
  MNW2 WELL: WELL3                Qnet =   -2129.48425167751       < Qdes
   Q  updated because of Pump Capacity restraint and/or Seepage Face calculation
 
 SOLVING FOR HEAD 
 
MNW2 Well Conductance and Screen (Open Interval) Data
                              M O D E L  L A Y E R     W E L L  S C R E E N   Penetration    SKIN       CALCULATED
WELLID        Node    CWC*     top_elev    bott.elev    top_elev   bott.elev    fraction     COEFF.          B
WELL1            1   102.8        20.00       0.000       20.00       0.000      1.0000     -0.1792     -8.2511E-04          
WELL2            1   102.8        20.00       0.000       20.00       0.000      1.0000     -0.1792     -8.2511E-04          
WELL3            1   102.8        20.00       0.000       20.00       0.000      1.0000     -0.1792     -8.2511E-04          
* Cell-to-well conductance values (CWC) may change during the course of a stress period
 
  Capacity Q calculations stopped iter. no.   4 due to hwell change less than HWtol for well WELL1               
  with Pump-Capacity Q =   -3237.00000000000     
  Capacity Q calculations stopped iter. no.   4 due to hwell change less than HWtol for well WELL2               
  with Pump-Capacity Q =   -3237.00000000000     
  Capacity Q calculations stopped iter. no.   4 due to hwell change less than HWtol for well WELL3               
  with Pump-Capacity Q =   -3237.00000000000     

 NO OUTPUT CONTROL FOR STRESS PERIOD    5   TIME STEP    2
 
  MNW2 WELL: WELL1                Qnet =   -1969.07212242697       < Qdes
   Q  updated because of Pump Capacity restraint and/or Seepage Face calculation
 
  MNW2 WELL: WELL2                Qnet =   -2112.39271065516       < Qdes
   Q  updated because of Pump Capacity restraint and/or Seepage Face calculation
 
  MNW2 WELL: WELL3                Qnet =   -2115.15988812730       < Qdes
   Q  updated because of Pump Capacity restraint and/or Seepage Face calculation
 
 SOLVING FOR HEAD 
 
MNW2 Well Conductance and Screen (Open Interval) Data
                              M O D E L  L A Y E R     W E L L  S C R E E N   Penetration    SKIN       CALCULATED
WELLID        Node    CWC*     top_elev    bott.elev    top_elev   bott.elev    fraction     COEFF.          B
WELL1            1   102.8        20.00       0.000       20.00       0.000      1.0000     -0.1792     -8.2511E-04          
WELL2            1   102.8        20.00       0.000       20.00       0.000      1.0000     -0.1792     -8.2511E-04          
WELL3            1   102.8        20.00       0.000       20.00       0.000      1.0000     -0.1792     -8.2511E-04          
* Cell-to-well conductance values (CWC) may change during the course of a stress period
 
  Capacity Q calculations stopped iter. no.   4 due to hwell change less than HWtol for well WELL1               
  with Pump-Capacity Q =   -3237.00000000000     
  Capacity Q calculations stopped iter. no.   4 due to hwell change less than HWtol for well WELL2               
  with Pump-Capacity Q =   -3237.00000000000     
  Capacity Q calculations stopped iter. no.   4 due to hwell change less than HWtol for well WELL3               
  with Pump-Capacity Q =   -3237.00000000000     

 NO OUTPUT CONTROL FOR STRESS PERIOD    5   TIME STEP    3
 
  MNW2 WELL: WELL1                Qnet =   -1954.61827292073       < Qdes
   Q  updated because of Pump Capacity restraint and/or Seepage Face calculation
 
  MNW2 WELL: WELL2                Qnet =   -2098.42876007336       < Qdes
   Q  updated because of Pump Capacity restraint and/or Seepage Face calculation
 
  MNW2 WELL: WELL3                Qnet =   -2101.34272191091       < Qdes
   Q  updated because of Pump Capacity restraint and/or Seepage Face calculation
 
 SOLVING FOR HEAD 
 
MNW2 Well Conductance and Screen (Open Interval) Data
                              M O D E L  L A Y E R     W E L L  S C R E E N   Penetration    SKIN       CALCULATED
WELLID        Node    CWC*     top_elev    bott.elev    top_elev   bott.elev    fraction     COEFF.          B
WELL1            1   102.8        20.00       0.000       20.00       0.000      1.0000     -0.1792     -8.2511E-04          
WELL2            1   102.8        20.00       0.000       20.00       0.000      1.0000     -0.1792     -8.2511E-04          
WELL3            1   102.8        20.00       0.000       20.00       0.000      1.0000     -0.1792     -8.2511E-04          
* Cell-to-well conductance values (CWC) may change during the course of a stress period
 
  Capacity Q calculations stopped iter. no.   4 due to hwell change less than HWtol for well WELL1               
  with Pump-Capacity Q =   -3237.00000000000     
  Capacity Q calculations stopped iter. no.   4 due to hwell change less than HWtol for well WELL2               
  with Pump-Capacity Q =   -3237.00000000000     
  Capacity Q calculations stopped iter. no.   4 due to hwell change less than HWtol for well WELL3               
  with Pump-Capacity Q =   -3237.00000000000     

 NO OUTPUT CONTROL FOR STRESS PERIOD    5   TIME STEP    4
 
  MNW2 WELL: WELL1                Qnet =   -1940.76837858084       < Qdes
   Q  updated because of Pump Capacity restraint and/or Seepage Face calculation
 
  MNW2 WELL: WELL2                Qnet =   -2084.93690622373       < Qdes
   Q  updated because of Pump Capacity restraint and/or Seepage Face calculation
 
  MNW2 WELL: WELL3                Qnet =   -2087.99568432596       < Qdes
   Q  updated because of Pump Capacity restraint and/or Seepage Face calculation
 
 SOLVING FOR HEAD 
 
MNW2 Well Conductance and Screen (Open Interval) Data
                              M O D E L  L A Y E R     W E L L  S C R E E N   Penetration    SKIN       CALCULATED
WELLID        Node    CWC*     top_elev    bott.elev    top_elev   bott.elev    fraction     COEFF.          B
WELL1            1   102.8        20.00       0.000       20.00       0.000      1.0000     -0.1792     -8.2511E-04          
WELL2            1   102.8        20.00       0.000       20.00       0.000      1.0000     -0.1792     -8.2511E-04          
WELL3            1   102.8        20.00       0.000       20.00       0.000      1.0000     -0.1792     -8.2511E-04          
* Cell-to-well conductance values (CWC) may change during the course of a stress period
 

 CELL CONVERSIONS FOR ITER.=  2  LAYER=  1  STEP=  5  PERIOD=   5   (ROW,COL)
    DRY( 30, 50)   DRY( 70, 50)   
  Capacity Q calculations stopped iter. no.   4 due to hwell change less than HWtol for well WELL1               
  with Pump-Capacity Q =   -3237.00000000000     
  Capacity Q calculations stopped iter. no.   4 due to hwell change less than HWtol for well WELL2               
  with Pump-Capacity Q =   -3237.00000000000     
  Capacity Q calculations stopped iter. no.   4 due to hwell change less than HWtol for well WELL3               
  with Pump-Capacity Q =   -3237.00000000000     

 NO OUTPUT CONTROL FOR STRESS PERIOD    5   TIME STEP    5
 
  MNW2 WELL: WELL1                Qnet =   -1927.47441888223       < Qdes
   Q  updated because of Pump Capacity restraint and/or Seepage Face calculation
 
  MNW2 WELL: WELL2                Qnet =   -2071.68079399497       < Qdes
   Q  updated because of Pump Capacity restraint and/or Seepage Face calculation
 
  MNW2 WELL: WELL3                Qnet =   -2074.86896700337       < Qdes
   Q  updated because of Pump Capacity restraint and/or Seepage Face calculation
 
 SOLVING FOR HEAD 
 
MNW2 Well Conductance and Screen (Open Interval) Data
                              M O D E L  L A Y E R     W E L L  S C R E E N   Penetration    SKIN       CALCULATED
WELLID        Node    CWC*     top_elev    bott.elev    top_elev   bott.elev    fraction     COEFF.          B
WELL1            1   102.8        20.00       0.000       20.00       0.000      1.0000     -0.1792     -8.2511E-04          
WELL2            1   102.8        20.00       0.000       20.00       0.000      1.0000     -0.1792     -8.2511E-04          
WELL3            1   102.8        20.00       0.000       20.00       0.000      1.0000     -0.1792     -8.2511E-04          
* Cell-to-well conductance values (CWC) may change during the course of a stress period
 
  Capacity Q calculations stopped iter. no.   4 due to hwell change less than HWtol for well WELL1               
  with Pump-Capacity Q =   -3237.00000000000     
  Capacity Q calculations stopped iter. no.   4 due to hwell change less than HWtol for well WELL2               
  with Pump-Capacity Q =   -3237.00000000000     
  Capacity Q calculations stopped iter. no.   4 due to hwell change less than HWtol for well WELL3               
  with Pump-Capacity Q =   -3237.00000000000     

 NO OUTPUT CONTROL FOR STRESS PERIOD    5   TIME STEP    6
 
  MNW2 WELL: WELL1                Qnet =   -1914.69474903345       < Qdes
   Q  updated because of Pump Capacity restraint and/or Seepage Face calculation
 
  MNW2 WELL: WELL2                Qnet =   -2059.10993721029       < Qdes
   Q  updated because of Pump Capacity restraint and/or Seepage Face calculation
 
  MNW2 WELL: WELL3                Qnet =   -2062.44056682043       < Qdes
   Q  updated because of Pump Capacity restraint and/or Seepage Face calculation
 
 SOLVING FOR HEAD 
 
MNW2 Well Conductance and Screen (Open Interval) Data
                              M O D E L  L A Y E R     W E L L  S C R E E N   Penetration    SKIN       CALCULATED
WELLID        Node    CWC*     top_elev    bott.elev    top_elev   bott.elev    fraction     COEFF.          B
WELL1            1   102.8        20.00       0.000       20.00       0.000      1.0000     -0.1792     -8.2511E-04          
WELL2            1   102.8        20.00       0.000       20.00       0.000      1.0000     -0.1792     -8.2511E-04          
WELL3            1   102.8        20.00       0.000       20.00       0.000      1.0000     -0.1792     -8.2511E-04          
* Cell-to-well conductance values (CWC) may change during the course of a stress period
 
  Capacity Q calculations stopped iter. no.   4 due to hwell change less than HWtol for well WELL1               
  with Pump-Capacity Q =   -3237.00000000000     
  Capacity Q calculations stopped iter. no.   4 due to hwell change less than HWtol for well WELL2               
  with Pump-Capacity Q =   -3237.00000000000     
  Capacity Q calculations stopped iter. no.   4 due to hwell change less than HWtol for well WELL3               
  with Pump-Capacity Q =   -3237.00000000000     

 NO OUTPUT CONTROL FOR STRESS PERIOD    5   TIME STEP    7
 
  MNW2 WELL: WELL1                Qnet =   -1902.39062853889       < Qdes
   Q  updated because of Pump Capacity restraint and/or Seepage Face calculation
 
  MNW2 WELL: WELL2                Qnet =   -2046.90271611053       < Qdes
   Q  updated because of Pump Capacity restraint and/or Seepage Face calculation
 
  MNW2 WELL: WELL3                Qnet =   -2050.37181858826       < Qdes
   Q  updated because of Pump Capacity restraint and/or Seepage Face calculation
 
 SOLVING FOR HEAD 
 
MNW2 Well Conductance and Screen (Open Interval) Data
                              M O D E L  L A Y E R     W E L L  S C R E E N   Penetration    SKIN       CALCULATED
WELLID        Node    CWC*     top_elev    bott.elev    top_elev   bott.elev    fraction     COEFF.          B
WELL1            1   102.8        20.00       0.000       20.00       0.000      1.0000     -0.1792     -8.2511E-04          
WELL2            1   102.8        20.00       0.000       20.00       0.000      1.0000     -0.1792     -8.2511E-04          
WELL3            1   102.8        20.00       0.000       20.00       0.000      1.0000     -0.1792     -8.2511E-04          
* Cell-to-well conductance values (CWC) may change during the course of a stress period
 
  Capacity Q calculations stopped iter. no.   4 due to hwell change less than HWtol for well WELL1               
  with Pump-Capacity Q =   -3237.00000000000     
  Capacity Q calculations stopped iter. no.   4 due to hwell change less than HWtol for well WELL2               
  with Pump-Capacity Q =   -3237.00000000000     
  Capacity Q calculations stopped iter. no.   4 due to hwell change less than HWtol for well WELL3               
  with Pump-Capacity Q =   -3237.00000000000     

 NO OUTPUT CONTROL FOR STRESS PERIOD    5   TIME STEP    8
 
  MNW2 WELL: WELL1                Qnet =   -1890.52730324540       < Qdes
   Q  updated because of Pump Capacity restraint and/or Seepage Face calculation
 
  MNW2 WELL: WELL2                Qnet =   -2035.04437344410       < Qdes
   Q  updated because of Pump Capacity restraint and/or Seepage Face calculation
 
  MNW2 WELL: WELL3                Qnet =   -2038.64847988611       < Qdes
   Q  updated because of Pump Capacity restraint and/or Seepage Face calculation
 
 SOLVING FOR HEAD 
 
MNW2 Well Conductance and Screen (Open Interval) Data
                              M O D E L  L A Y E R     W E L L  S C R E E N   Penetration    SKIN       CALCULATED
WELLID        Node    CWC*     top_elev    bott.elev    top_elev   bott.elev    fraction     COEFF.          B
WELL1            1   102.8        20.00       0.000       20.00       0.000      1.0000     -0.1792     -8.2511E-04          
WELL2            1   102.8        20.00       0.000       20.00       0.000      1.0000     -0.1792     -8.2511E-04          
WELL3            1   102.8        20.00       0.000       20.00       0.000      1.0000     -0.1792     -8.2511E-04          
* Cell-to-well conductance values (CWC) may change during the course of a stress period
 
  Capacity Q calculations stopped iter. no.   4 due to hwell change less than HWtol for well WELL1               
  with Pump-Capacity Q =   -3237.00000000000     
  Capacity Q calculations stopped iter. no.   4 due to hwell change less than HWtol for well WELL2               
  with Pump-Capacity Q =   -3237.00000000000     
  Capacity Q calculations stopped iter. no.   4 due to hwell change less than HWtol for well WELL3               
  with Pump-Capacity Q =   -3237.00000000000     

 NO OUTPUT CONTROL FOR STRESS PERIOD    5   TIME STEP    9
 
  MNW2 WELL: WELL1                Qnet =   -1879.07343930399       < Qdes
   Q  updated because of Pump Capacity restraint and/or Seepage Face calculation
 
  MNW2 WELL: WELL2                Qnet =   -2023.51769629785       < Qdes
   Q  updated because of Pump Capacity restraint and/or Seepage Face calculation
 
  MNW2 WELL: WELL3                Qnet =   -2027.25356648277       < Qdes
   Q  updated because of Pump Capacity restraint and/or Seepage Face calculation
 
 SOLVING FOR HEAD 
 
MNW2 Well Conductance and Screen (Open Interval) Data
                              M O D E L  L A Y E R     W E L L  S C R E E N   Penetration    SKIN       CALCULATED
WELLID        Node    CWC*     top_elev    bott.elev    top_elev   bott.elev    fraction     COEFF.          B
WELL1            1   102.8        20.00       0.000       20.00       0.000      1.0000     -0.1792     -8.2511E-04          
WELL2            1   102.8        20.00       0.000       20.00       0.000      1.0000     -0.1792     -8.2511E-04          
WELL3            1   102.8        20.00       0.000       20.00       0.000      1.0000     -0.1792     -8.2511E-04          
* Cell-to-well conductance values (CWC) may change during the course of a stress period
 
  Capacity Q calculations stopped iter. no.   4 due to hwell change less than HWtol for well WELL1               
  with Pump-Capacity Q =   -3237.00000000000     
  Capacity Q calculations stopped iter. no.   4 due to hwell change less than HWtol for well WELL2               
  with Pump-Capacity Q =   -3237.00000000000     
  Capacity Q calculations stopped iter. no.   4 due to hwell change less than HWtol for well WELL3               
  with Pump-Capacity Q =   -3237.00000000000     

 OUTPUT CONTROL FOR STRESS PERIOD    5   TIME STEP   10
    SAVE HEAD FOR ALL LAYERS
    SAVE BUDGET
 UBDSV1 SAVING "         STORAGE" ON UNIT  53 AT TIME STEP 10, STRESS PERIOD   5
 UBDSV2 SAVING "   CONSTANT HEAD" ON UNIT  53 AT TIME STEP 10, STRESS PERIOD   5
 UBDSV1 SAVING "FLOW RIGHT FACE " ON UNIT  53 AT TIME STEP 10, STRESS PERIOD   5
 UBDSV1 SAVING "FLOW FRONT FACE " ON UNIT  53 AT TIME STEP 10, STRESS PERIOD   5
 UBDSV1 SAVING "FLOW LOWER FACE " ON UNIT  53 AT TIME STEP 10, STRESS PERIOD   5

 Nodal information for all MNW2 wells, PERIOD =    5  STEP =   10
WELLID                NODE   Lay   Row   Col        Totim        Q-node         hwell         hcell    Seepage elev.
WELL1                    1     2    50    50   1.196000E+03 -1.868001E+03  1.817972E+01  1.817972E+01
WELL2                    1     2    30    50   1.196000E+03 -2.012305E+03  1.958412E+01  1.958411E+01
WELL3                    1     2    70    50   1.196000E+03 -2.016169E+03  1.962172E+01  1.962172E+01

     Summary information for MNW2 wells
WELLID                    Totim            Qin           Qout           Qnet          hwell
 
  MNW2 WELL: WELL1                Qnet =   -1868.00070311984       < Qdes
   Q  updated because of Pump Capacity restraint and/or Seepage Face calculation
WELL1                   1196.00       -1868.00        0.00000       -1868.00        18.1797    
 
  MNW2 WELL: WELL2                Qnet =   -2012.30498764477       < Qdes
   Q  updated because of Pump Capacity restraint and/or Seepage Face calculation
WELL2                   1196.00       -2012.30        0.00000       -2012.30        19.5841    
 
  MNW2 WELL: WELL3                Qnet =   -2016.16939657275       < Qdes
   Q  updated because of Pump Capacity restraint and/or Seepage Face calculation
WELL3                   1196.00       -2016.17        0.00000       -2016.17        19.6217    
 
 UBUDSV SAVING "            MNW2" ON UNIT 90 AT TIME STEP 10, STRESS PERIOD    5

 HEAD WILL BE SAVED ON UNIT   51 AT END OF TIME STEP   10, STRESS PERIOD    5
1
  VOLUMETRIC BUDGET FOR ENTIRE MODEL AT END OF TIME STEP   10, STRESS PERIOD   5
  ------------------------------------------------------------------------------

     CUMULATIVE VOLUMES      L**3       RATES FOR THIS TIME STEP      L**3/T
     ------------------                 ------------------------

           IN:                                      IN:
           ---                                      ---
             STORAGE =     7431053.5000               STORAGE =        4618.8696
       CONSTANT HEAD =      725052.6875         CONSTANT HEAD =        1277.6438
                MNW2 =           0.0000                  MNW2 =           0.0000

            TOTAL IN =     8156106.0000              TOTAL IN =        5896.5137

          OUT:                                     OUT:
          ----                                     ----
             STORAGE =           0.0000               STORAGE =           0.0000
       CONSTANT HEAD =           0.0000         CONSTANT HEAD =           0.0000
                MNW2 =     8156064.0000                  MNW2 =        5896.4751

           TOTAL OUT =     8156064.0000             TOTAL OUT =        5896.4751

            IN - OUT =          42.0000              IN - OUT =       3.8574E-02

 PERCENT DISCREPANCY =           0.00     PERCENT DISCREPANCY =           0.00






         TIME SUMMARY AT END OF TIME STEP   10 IN STRESS PERIOD    5
                    SECONDS     MINUTES      HOURS       DAYS        YEARS
                    -----------------------------------------------------------
   TIME STEP LENGTH 3.15360E+06  52560.      876.00      36.500     9.99316E-02
 STRESS PERIOD TIME 3.15360E+07 5.25600E+05  8760.0      365.00     0.99932    
         TOTAL TIME 1.03334E+08 1.72224E+06  28704.      1196.0      3.2745    
1
1
                            STRESS PERIOD NO.    6, LENGTH =   365.0000    
                            -----------------------------------------------

                              NUMBER OF TIME STEPS =    10

                               MULTIPLIER FOR DELT =     1.000

                            INITIAL TIME STEP SIZE =   36.50000    
 
 MNW2:            3  active wells in stress period            6
 
 
 WELLNAME = WELL1               
MNW2 Well well1                active, desired Q = -3.2370E+03 for stress period    6
 
Reference head for calculating lift =   1.0000E+01
Pump Capacity Multiplier =   1.0000E+00
HWtol =   1.0000E-02
     (Note: Solution may be sensitive to value of HWtol; adjust value if solution fails to converge.)
 
   Well Capacity Table
    Lift       Discharge
   80.000       0.000    
   75.000       809.0    
   70.000       1618.    
   65.000       2427.    
   60.000       3235.    
  1.00000       3236.    
   0.0000       3237.    
 
 WELLNAME = WELL2               
MNW2 Well well2                active, desired Q = -3.2370E+03 for stress period    6
 
Reference head for calculating lift =   1.0000E+01
Pump Capacity Multiplier =   1.0000E+00
HWtol =   1.0000E-02
     (Note: Solution may be sensitive to value of HWtol; adjust value if solution fails to converge.)
 
   Well Capacity Table
    Lift       Discharge
   80.000       0.000    
   75.000       809.0    
   70.000       1618.    
   65.000       2427.    
   60.000       3235.    
  1.00000       3236.    
   0.0000       3237.    
 
 WELLNAME = WELL3               
MNW2 Well well3                active, desired Q = -3.2370E+03 for stress period    6
 
Reference head for calculating lift =   1.0000E+01
Pump Capacity Multiplier =   1.0000E+00
HWtol =   1.0000E-02
     (Note: Solution may be sensitive to value of HWtol; adjust value if solution fails to converge.)
 
   Well Capacity Table
    Lift       Discharge
   80.000       0.000    
   75.000       809.0    
   70.000       1618.    
   65.000       2427.    
   60.000       3235.    
  1.00000       3236.    
   0.0000       3237.    
 
 SOLVING FOR HEAD 
 
MNW2 Well Conductance and Screen (Open Interval) Data
                              M O D E L  L A Y E R     W E L L  S C R E E N   Penetration    SKIN       CALCULATED
WELLID        Node    CWC*     top_elev    bott.elev    top_elev   bott.elev    fraction     COEFF.          B
WELL1            1   102.8        20.00       0.000       20.00       0.000      1.0000     -0.1792     -8.2511E-04          
WELL2            1   102.8        20.00       0.000       20.00       0.000      1.0000     -0.1792     -8.2511E-04          
WELL3            1   102.8        20.00       0.000       20.00       0.000      1.0000     -0.1792     -8.2511E-04          
* Cell-to-well conductance values (CWC) may change during the course of a stress period
 
  Capacity Q calculations stopped iter. no.   4 due to hwell change less than HWtol for well WELL1               
  with Pump-Capacity Q =   -3237.00000000000     
  Capacity Q calculations stopped iter. no.   4 due to hwell change less than HWtol for well WELL2               
  with Pump-Capacity Q =   -3237.00000000000     
  Capacity Q calculations stopped iter. no.   4 due to hwell change less than HWtol for well WELL3               
  with Pump-Capacity Q =   -3237.00000000000     

 NO OUTPUT CONTROL FOR STRESS PERIOD    6   TIME STEP    1
 
  MNW2 WELL: WELL1                Qnet =   -1857.28334758909       < Qdes
   Q  updated because of Pump Capacity restraint and/or Seepage Face calculation
 
  MNW2 WELL: WELL2                Qnet =   -2001.38912888648       < Qdes
   Q  updated because of Pump Capacity restraint and/or Seepage Face calculation
 
  MNW2 WELL: WELL3                Qnet =   -2005.37884702835       < Qdes
   Q  updated because of Pump Capacity restraint and/or Seepage Face calculation
 
 SOLVING FOR HEAD 
 
MNW2 Well Conductance and Screen (Open Interval) Data
                              M O D E L  L A Y E R     W E L L  S C R E E N   Penetration    SKIN       CALCULATED
WELLID        Node    CWC*     top_elev    bott.elev    top_elev   bott.elev    fraction     COEFF.          B
WELL1            1   102.8        20.00       0.000       20.00       0.000      1.0000     -0.1792     -8.2511E-04          
WELL2            1   102.8        20.00       0.000       20.00       0.000      1.0000     -0.1792     -8.2511E-04          
WELL3            1   102.8        20.00       0.000       20.00       0.000      1.0000     -0.1792     -8.2511E-04          
* Cell-to-well conductance values (CWC) may change during the course of a stress period
 
  Capacity Q calculations stopped iter. no.   4 due to hwell change less than HWtol for well WELL1               
  with Pump-Capacity Q =   -3237.00000000000     
  Capacity Q calculations stopped iter. no.   4 due to hwell change less than HWtol for well WELL2               
  with Pump-Capacity Q =   -3237.00000000000     
  Capacity Q calculations stopped iter. no.   4 due to hwell change less than HWtol for well WELL3               
  with Pump-Capacity Q =   -3237.00000000000     

 NO OUTPUT CONTROL FOR STRESS PERIOD    6   TIME STEP    2
 
  MNW2 WELL: WELL1                Qnet =   -1846.89805487434       < Qdes
   Q  updated because of Pump Capacity restraint and/or Seepage Face calculation
 
  MNW2 WELL: WELL2                Qnet =   -1990.75414489971       < Qdes
   Q  updated because of Pump Capacity restraint and/or Seepage Face calculation
 
  MNW2 WELL: WELL3                Qnet =   -1994.86589587338       < Qdes
   Q  updated because of Pump Capacity restraint and/or Seepage Face calculation
 
 SOLVING FOR HEAD 
 
MNW2 Well Conductance and Screen (Open Interval) Data
                              M O D E L  L A Y E R     W E L L  S C R E E N   Penetration    SKIN       CALCULATED
WELLID        Node    CWC*     top_elev    bott.elev    top_elev   bott.elev    fraction     COEFF.          B
WELL1            1   102.8        20.00       0.000       20.00       0.000      1.0000     -0.1792     -8.2511E-04          
WELL2            1   102.8        20.00       0.000       20.00       0.000      1.0000     -0.1792     -8.2511E-04          
WELL3            1   102.8        20.00       0.000       20.00       0.000      1.0000     -0.1792     -8.2511E-04          
* Cell-to-well conductance values (CWC) may change during the course of a stress period
 
  Capacity Q calculations stopped iter. no.   4 due to hwell change less than HWtol for well WELL1               
  with Pump-Capacity Q =   -3237.00000000000     
  Capacity Q calculations stopped iter. no.   4 due to hwell change less than HWtol for well WELL2               
  with Pump-Capacity Q =   -3237.00000000000     
  Capacity Q calculations stopped iter. no.   4 due to hwell change less than HWtol for well WELL3               
  with Pump-Capacity Q =   -3237.00000000000     

 NO OUTPUT CONTROL FOR STRESS PERIOD    6   TIME STEP    3
 
  MNW2 WELL: WELL1                Qnet =   -1836.82354484519       < Qdes
   Q  updated because of Pump Capacity restraint and/or Seepage Face calculation
 
  MNW2 WELL: WELL2                Qnet =   -1980.38517058317       < Qdes
   Q  updated because of Pump Capacity restraint and/or Seepage Face calculation
 
  MNW2 WELL: WELL3                Qnet =   -1984.61564654080       < Qdes
   Q  updated because of Pump Capacity restraint and/or Seepage Face calculation
 
 SOLVING FOR HEAD 
 
MNW2 Well Conductance and Screen (Open Interval) Data
                              M O D E L  L A Y E R     W E L L  S C R E E N   Penetration    SKIN       CALCULATED
WELLID        Node    CWC*     top_elev    bott.elev    top_elev   bott.elev    fraction     COEFF.          B
WELL1            1   102.8        20.00       0.000       20.00       0.000      1.0000     -0.1792     -8.2511E-04          
WELL2            1   102.8        20.00       0.000       20.00       0.000      1.0000     -0.1792     -8.2511E-04          
WELL3            1   102.8        20.00       0.000       20.00       0.000      1.0000     -0.1792     -8.2511E-04          
* Cell-to-well conductance values (CWC) may change during the course of a stress period
 
  Capacity Q calculations stopped iter. no.   4 due to hwell change less than HWtol for well WELL1               
  with Pump-Capacity Q =   -3237.00000000000     
  Capacity Q calculations stopped iter. no.   4 due to hwell change less than HWtol for well WELL2               
  with Pump-Capacity Q =   -3237.00000000000     
  Capacity Q calculations stopped iter. no.   4 due to hwell change less than HWtol for well WELL3               
  with Pump-Capacity Q =   -3237.00000000000     

 NO OUTPUT CONTROL FOR STRESS PERIOD    6   TIME STEP    4
 
  MNW2 WELL: WELL1                Qnet =   -1827.04042841043       < Qdes
   Q  updated because of Pump Capacity restraint and/or Seepage Face calculation
 
  MNW2 WELL: WELL2                Qnet =   -1970.26847249495       < Qdes
   Q  updated because of Pump Capacity restraint and/or Seepage Face calculation
 
  MNW2 WELL: WELL3                Qnet =   -1974.61432157886       < Qdes
   Q  updated because of Pump Capacity restraint and/or Seepage Face calculation
 
 SOLVING FOR HEAD 
 
MNW2 Well Conductance and Screen (Open Interval) Data
                              M O D E L  L A Y E R     W E L L  S C R E E N   Penetration    SKIN       CALCULATED
WELLID        Node    CWC*     top_elev    bott.elev    top_elev   bott.elev    fraction     COEFF.          B
WELL1            1   102.8        20.00       0.000       20.00       0.000      1.0000     -0.1792     -8.2511E-04          
WELL2            1   102.8        20.00       0.000       20.00       0.000      1.0000     -0.1792     -8.2511E-04          
WELL3            1   102.8        20.00       0.000       20.00       0.000      1.0000     -0.1792     -8.2511E-04          
* Cell-to-well conductance values (CWC) may change during the course of a stress period
 
  Capacity Q calculations stopped iter. no.   4 due to hwell change less than HWtol for well WELL1               
  with Pump-Capacity Q =   -3237.00000000000     
  Capacity Q calculations stopped iter. no.   4 due to hwell change less than HWtol for well WELL2               
  with Pump-Capacity Q =   -3237.00000000000     
  Capacity Q calculations stopped iter. no.   4 due to hwell change less than HWtol for well WELL3               
  with Pump-Capacity Q =   -3237.00000000000     

 NO OUTPUT CONTROL FOR STRESS PERIOD    6   TIME STEP    5
 
  MNW2 WELL: WELL1                Qnet =   -1817.53098362013       < Qdes
   Q  updated because of Pump Capacity restraint and/or Seepage Face calculation
 
  MNW2 WELL: WELL2                Qnet =   -1960.39135748005       < Qdes
   Q  updated because of Pump Capacity restraint and/or Seepage Face calculation
 
  MNW2 WELL: WELL3                Qnet =   -1964.84922776363       < Qdes
   Q  updated because of Pump Capacity restraint and/or Seepage Face calculation
 
 SOLVING FOR HEAD 
 
MNW2 Well Conductance and Screen (Open Interval) Data
                              M O D E L  L A Y E R     W E L L  S C R E E N   Penetration    SKIN       CALCULATED
WELLID        Node    CWC*     top_elev    bott.elev    top_elev   bott.elev    fraction     COEFF.          B
WELL1            1   102.8        20.00       0.000       20.00       0.000      1.0000     -0.1792     -8.2511E-04          
WELL2            1   102.8        20.00       0.000       20.00       0.000      1.0000     -0.1792     -8.2511E-04          
WELL3            1   102.8        20.00       0.000       20.00       0.000      1.0000     -0.1792     -8.2511E-04          
* Cell-to-well conductance values (CWC) may change during the course of a stress period
 
  Capacity Q calculations stopped iter. no.   4 due to hwell change less than HWtol for well WELL1               
  with Pump-Capacity Q =   -3237.00000000000     
  Capacity Q calculations stopped iter. no.   4 due to hwell change less than HWtol for well WELL2               
  with Pump-Capacity Q =   -3237.00000000000     
  Capacity Q calculations stopped iter. no.   4 due to hwell change less than HWtol for well WELL3               
  with Pump-Capacity Q =   -3237.00000000000     

 NO OUTPUT CONTROL FOR STRESS PERIOD    6   TIME STEP    6
 
  MNW2 WELL: WELL1                Qnet =   -1808.27900186924       < Qdes
   Q  updated because of Pump Capacity restraint and/or Seepage Face calculation
 
  MNW2 WELL: WELL2                Qnet =   -1950.74208714752       < Qdes
   Q  updated because of Pump Capacity restraint and/or Seepage Face calculation
 
  MNW2 WELL: WELL3                Qnet =   -1955.30862284041       < Qdes
   Q  updated because of Pump Capacity restraint and/or Seepage Face calculation
 
 SOLVING FOR HEAD 
 
MNW2 Well Conductance and Screen (Open Interval) Data
                              M O D E L  L A Y E R     W E L L  S C R E E N   Penetration    SKIN       CALCULATED
WELLID        Node    CWC*     top_elev    bott.elev    top_elev   bott.elev    fraction     COEFF.          B
WELL1            1   102.8        20.00       0.000       20.00       0.000      1.0000     -0.1792     -8.2511E-04          
WELL2            1   102.8        20.00       0.000       20.00       0.000      1.0000     -0.1792     -8.2511E-04          
WELL3            1   102.8        20.00       0.000       20.00       0.000      1.0000     -0.1792     -8.2511E-04          
* Cell-to-well conductance values (CWC) may change during the course of a stress period
 
  Capacity Q calculations stopped iter. no.   4 due to hwell change less than HWtol for well WELL1               
  with Pump-Capacity Q =   -3237.00000000000     
  Capacity Q calculations stopped iter. no.   4 due to hwell change less than HWtol for well WELL2               
  with Pump-Capacity Q =   -3237.00000000000     
  Capacity Q calculations stopped iter. no.   4 due to hwell change less than HWtol for well WELL3               
  with Pump-Capacity Q =   -3237.00000000000     

 NO OUTPUT CONTROL FOR STRESS PERIOD    6   TIME STEP    7
 
  MNW2 WELL: WELL1                Qnet =   -1799.26962478635       < Qdes
   Q  updated because of Pump Capacity restraint and/or Seepage Face calculation
 
  MNW2 WELL: WELL2                Qnet =   -1941.30979444147       < Qdes
   Q  updated because of Pump Capacity restraint and/or Seepage Face calculation
 
  MNW2 WELL: WELL3                Qnet =   -1945.98163888498       < Qdes
   Q  updated because of Pump Capacity restraint and/or Seepage Face calculation
 
 SOLVING FOR HEAD 
 
MNW2 Well Conductance and Screen (Open Interval) Data
                              M O D E L  L A Y E R     W E L L  S C R E E N   Penetration    SKIN       CALCULATED
WELLID        Node    CWC*     top_elev    bott.elev    top_elev   bott.elev    fraction     COEFF.          B
WELL1            1   102.8        20.00       0.000       20.00       0.000      1.0000     -0.1792     -8.2511E-04          
WELL2            1   102.8        20.00       0.000       20.00       0.000      1.0000     -0.1792     -8.2511E-04          
WELL3            1   102.8        20.00       0.000       20.00       0.000      1.0000     -0.1792     -8.2511E-04          
* Cell-to-well conductance values (CWC) may change during the course of a stress period
 
  Capacity Q calculations stopped iter. no.   4 due to hwell change less than HWtol for well WELL1               
  with Pump-Capacity Q =   -3237.00000000000     
  Capacity Q calculations stopped iter. no.   4 due to hwell change less than HWtol for well WELL2               
  with Pump-Capacity Q =   -3237.00000000000     
  Capacity Q calculations stopped iter. no.   4 due to hwell change less than HWtol for well WELL3               
  with Pump-Capacity Q =   -3237.00000000000     

 NO OUTPUT CONTROL FOR STRESS PERIOD    6   TIME STEP    8
 
  MNW2 WELL: WELL1                Qnet =   -1790.48921922649       < Qdes
   Q  updated because of Pump Capacity restraint and/or Seepage Face calculation
 
  MNW2 WELL: WELL2                Qnet =   -1932.08439636249       < Qdes
   Q  updated because of Pump Capacity restraint and/or Seepage Face calculation
 
  MNW2 WELL: WELL3                Qnet =   -1936.85821996040       < Qdes
   Q  updated because of Pump Capacity restraint and/or Seepage Face calculation
 
 SOLVING FOR HEAD 
 
MNW2 Well Conductance and Screen (Open Interval) Data
                              M O D E L  L A Y E R     W E L L  S C R E E N   Penetration    SKIN       CALCULATED
WELLID        Node    CWC*     top_elev    bott.elev    top_elev   bott.elev    fraction     COEFF.          B
WELL1            1   102.8        20.00       0.000       20.00       0.000      1.0000     -0.1792     -8.2511E-04          
WELL2            1   102.8        20.00       0.000       20.00       0.000      1.0000     -0.1792     -8.2511E-04          
WELL3            1   102.8        20.00       0.000       20.00       0.000      1.0000     -0.1792     -8.2511E-04          
* Cell-to-well conductance values (CWC) may change during the course of a stress period
 
  Capacity Q calculations stopped iter. no.   4 due to hwell change less than HWtol for well WELL1               
  with Pump-Capacity Q =   -3237.00000000000     
  Capacity Q calculations stopped iter. no.   4 due to hwell change less than HWtol for well WELL2               
  with Pump-Capacity Q =   -3237.00000000000     
  Capacity Q calculations stopped iter. no.   4 due to hwell change less than HWtol for well WELL3               
  with Pump-Capacity Q =   -3237.00000000000     

 NO OUTPUT CONTROL FOR STRESS PERIOD    6   TIME STEP    9
 
  MNW2 WELL: WELL1                Qnet =   -1781.92522690098       < Qdes
   Q  updated because of Pump Capacity restraint and/or Seepage Face calculation
 
  MNW2 WELL: WELL2                Qnet =   -1923.05653150408       < Qdes
   Q  updated because of Pump Capacity restraint and/or Seepage Face calculation
 
  MNW2 WELL: WELL3                Qnet =   -1927.92902325136       < Qdes
   Q  updated because of Pump Capacity restraint and/or Seepage Face calculation
 
 SOLVING FOR HEAD 
 
MNW2 Well Conductance and Screen (Open Interval) Data
                              M O D E L  L A Y E R     W E L L  S C R E E N   Penetration    SKIN       CALCULATED
WELLID        Node    CWC*     top_elev    bott.elev    top_elev   bott.elev    fraction     COEFF.          B
WELL1            1   102.8        20.00       0.000       20.00       0.000      1.0000     -0.1792     -8.2511E-04          
WELL2            1   102.8        20.00       0.000       20.00       0.000      1.0000     -0.1792     -8.2511E-04          
WELL3            1   102.8        20.00       0.000       20.00       0.000      1.0000     -0.1792     -8.2511E-04          
* Cell-to-well conductance values (CWC) may change during the course of a stress period
 
  Capacity Q calculations stopped iter. no.   4 due to hwell change less than HWtol for well WELL1               
  with Pump-Capacity Q =   -3237.00000000000     
  Capacity Q calculations stopped iter. no.   4 due to hwell change less than HWtol for well WELL2               
  with Pump-Capacity Q =   -3237.00000000000     
  Capacity Q calculations stopped iter. no.   4 due to hwell change less than HWtol for well WELL3               
  with Pump-Capacity Q =   -3237.00000000000     

 OUTPUT CONTROL FOR STRESS PERIOD    6   TIME STEP   10
    SAVE HEAD FOR ALL LAYERS
    SAVE BUDGET
 UBDSV1 SAVING "         STORAGE" ON UNIT  53 AT TIME STEP 10, STRESS PERIOD   6
 UBDSV2 SAVING "   CONSTANT HEAD" ON UNIT  53 AT TIME STEP 10, STRESS PERIOD   6
 UBDSV1 SAVING "FLOW RIGHT FACE " ON UNIT  53 AT TIME STEP 10, STRESS PERIOD   6
 UBDSV1 SAVING "FLOW FRONT FACE " ON UNIT  53 AT TIME STEP 10, STRESS PERIOD   6
 UBDSV1 SAVING "FLOW LOWER FACE " ON UNIT  53 AT TIME STEP 10, STRESS PERIOD   6

 Nodal information for all MNW2 wells, PERIOD =    6  STEP =   10
WELLID                NODE   Lay   Row   Col        Totim        Q-node         hwell         hcell    Seepage elev.
WELL1                    1     2    50    50   1.561000E+03 -1.773566E+03  1.726067E+01  1.726066E+01
WELL2                    1     2    30    50   1.561000E+03 -1.914217E+03  1.862951E+01  1.862951E+01
WELL3                    1     2    70    50   1.561000E+03 -1.919185E+03  1.867786E+01  1.867786E+01

     Summary information for MNW2 wells
WELLID                    Totim            Qin           Qout           Qnet          hwell
 
  MNW2 WELL: WELL1                Qnet =   -1773.56611213476       < Qdes
   Q  updated because of Pump Capacity restraint and/or Seepage Face calculation
WELL1                   1561.00       -1773.57        0.00000       -1773.57        17.2607    
 
  MNW2 WELL: WELL2                Qnet =   -1914.21749894473       < Qdes
   Q  updated because of Pump Capacity restraint and/or Seepage Face calculation
WELL2                   1561.00       -1914.22        0.00000       -1914.22        18.6295    
 
  MNW2 WELL: WELL3                Qnet =   -1919.18537161476       < Qdes
   Q  updated because of Pump Capacity restraint and/or Seepage Face calculation
WELL3                   1561.00       -1919.19        0.00000       -1919.19        18.6779    
 
 UBUDSV SAVING "            MNW2" ON UNIT 90 AT TIME STEP 10, STRESS PERIOD    6

 HEAD WILL BE SAVED ON UNIT   51 AT END OF TIME STEP   10, STRESS PERIOD    6
1
  VOLUMETRIC BUDGET FOR ENTIRE MODEL AT END OF TIME STEP   10, STRESS PERIOD   6
  ------------------------------------------------------------------------------

     CUMULATIVE VOLUMES      L**3       RATES FOR THIS TIME STEP      L**3/T
     ------------------                 ------------------------

           IN:                                      IN:
           ---                                      ---
             STORAGE =     8988905.0000               STORAGE =        4003.8896
       CONSTANT HEAD =     1259150.0000         CONSTANT HEAD =        1603.1174
                MNW2 =           0.0000                  MNW2 =           0.0000

            TOTAL IN =    10248055.0000              TOTAL IN =        5607.0068

          OUT:                                     OUT:
          ----                                     ----
             STORAGE =           0.0000               STORAGE =           0.0000
       CONSTANT HEAD =           0.0000         CONSTANT HEAD =           0.0000
                MNW2 =    10247998.0000                  MNW2 =        5606.9688

           TOTAL OUT =    10247998.0000             TOTAL OUT =        5606.9688

            IN - OUT =          57.0000              IN - OUT =       3.8086E-02

 PERCENT DISCREPANCY =           0.00     PERCENT DISCREPANCY =           0.00






         TIME SUMMARY AT END OF TIME STEP   10 IN STRESS PERIOD    6
                    SECONDS     MINUTES      HOURS       DAYS        YEARS
                    -----------------------------------------------------------
   TIME STEP LENGTH 3.15360E+06  52560.      876.00      36.500     9.99316E-02
 STRESS PERIOD TIME 3.15360E+07 5.25600E+05  8760.0      365.00     0.99932    
         TOTAL TIME 1.34870E+08 2.24784E+06  37464.      1561.0      4.2738    
1
1
                            STRESS PERIOD NO.    7, LENGTH =   365.0000    
                            -----------------------------------------------

                              NUMBER OF TIME STEPS =    10

                               MULTIPLIER FOR DELT =     1.000

                            INITIAL TIME STEP SIZE =   36.50000    
 
 MNW2:            3  active wells in stress period            7
 
 
 WELLNAME = WELL1               
MNW2 Well well1                active, desired Q = -3.2370E+03 for stress period    7
 
Reference head for calculating lift =   1.0000E+01
Pump Capacity Multiplier =   1.0000E+00
HWtol =   1.0000E-02
     (Note: Solution may be sensitive to value of HWtol; adjust value if solution fails to converge.)
 
   Well Capacity Table
    Lift       Discharge
   80.000       0.000    
   75.000       809.0    
   70.000       1618.    
   65.000       2427.    
   60.000       3235.    
  1.00000       3236.    
   0.0000       3237.    
 
 WELLNAME = WELL2               
MNW2 Well well2                active, desired Q = -3.2370E+03 for stress period    7
 
Reference head for calculating lift =   1.0000E+01
Pump Capacity Multiplier =   1.0000E+00
HWtol =   1.0000E-02
     (Note: Solution may be sensitive to value of HWtol; adjust value if solution fails to converge.)
 
   Well Capacity Table
    Lift       Discharge
   80.000       0.000    
   75.000       809.0    
   70.000       1618.    
   65.000       2427.    
   60.000       3235.    
  1.00000       3236.    
   0.0000       3237.    
 
 WELLNAME = WELL3               
MNW2 Well well3                active, desired Q = -3.2370E+03 for stress period    7
 
Reference head for calculating lift =   1.0000E+01
Pump Capacity Multiplier =   1.0000E+00
HWtol =   1.0000E-02
     (Note: Solution may be sensitive to value of HWtol; adjust value if solution fails to converge.)
 
   Well Capacity Table
    Lift       Discharge
   80.000       0.000    
   75.000       809.0    
   70.000       1618.    
   65.000       2427.    
   60.000       3235.    
  1.00000       3236.    
   0.0000       3237.    
 
 SOLVING FOR HEAD 
 
MNW2 Well Conductance and Screen (Open Interval) Data
                              M O D E L  L A Y E R     W E L L  S C R E E N   Penetration    SKIN       CALCULATED
WELLID        Node    CWC*     top_elev    bott.elev    top_elev   bott.elev    fraction     COEFF.          B
WELL1            1   102.8        20.00       0.000       20.00       0.000      1.0000     -0.1792     -8.2511E-04          
WELL2            1   102.8        20.00       0.000       20.00       0.000      1.0000     -0.1792     -8.2511E-04          
WELL3            1   102.8        20.00       0.000       20.00       0.000      1.0000     -0.1792     -8.2511E-04          
* Cell-to-well conductance values (CWC) may change during the course of a stress period
 
  Capacity Q calculations stopped iter. no.   4 due to hwell change less than HWtol for well WELL1               
  with Pump-Capacity Q =   -3237.00000000000     
  Capacity Q calculations stopped iter. no.   4 due to hwell change less than HWtol for well WELL2               
  with Pump-Capacity Q =   -3237.00000000000     
  Capacity Q calculations stopped iter. no.   4 due to hwell change less than HWtol for well WELL3               
  with Pump-Capacity Q =   -3237.00000000000     

 NO OUTPUT CONTROL FOR STRESS PERIOD    7   TIME STEP    1
 
  MNW2 WELL: WELL1                Qnet =   -1765.40121107315       < Qdes
   Q  updated because of Pump Capacity restraint and/or Seepage Face calculation
 
  MNW2 WELL: WELL2                Qnet =   -1905.55918156903       < Qdes
   Q  updated because of Pump Capacity restraint and/or Seepage Face calculation
 
  MNW2 WELL: WELL3                Qnet =   -1910.61919443891       < Qdes
   Q  updated because of Pump Capacity restraint and/or Seepage Face calculation
 
 SOLVING FOR HEAD 
 
MNW2 Well Conductance and Screen (Open Interval) Data
                              M O D E L  L A Y E R     W E L L  S C R E E N   Penetration    SKIN       CALCULATED
WELLID        Node    CWC*     top_elev    bott.elev    top_elev   bott.elev    fraction     COEFF.          B
WELL1            1   102.8        20.00       0.000       20.00       0.000      1.0000     -0.1792     -8.2511E-04          
WELL2            1   102.8        20.00       0.000       20.00       0.000      1.0000     -0.1792     -8.2511E-04          
WELL3            1   102.8        20.00       0.000       20.00       0.000      1.0000     -0.1792     -8.2511E-04          
* Cell-to-well conductance values (CWC) may change during the course of a stress period
 
  Capacity Q calculations stopped iter. no.   4 due to hwell change less than HWtol for well WELL1               
  with Pump-Capacity Q =   -3237.00000000000     
  Capacity Q calculations stopped iter. no.   4 due to hwell change less than HWtol for well WELL2               
  with Pump-Capacity Q =   -3237.00000000000     
  Capacity Q calculations stopped iter. no.   4 due to hwell change less than HWtol for well WELL3               
  with Pump-Capacity Q =   -3237.00000000000     

 NO OUTPUT CONTROL FOR STRESS PERIOD    7   TIME STEP    2
 
  MNW2 WELL: WELL1                Qnet =   -1757.42069732479       < Qdes
   Q  updated because of Pump Capacity restraint and/or Seepage Face calculation
 
  MNW2 WELL: WELL2                Qnet =   -1897.07399999660       < Qdes
   Q  updated because of Pump Capacity restraint and/or Seepage Face calculation
 
  MNW2 WELL: WELL3                Qnet =   -1902.22297160564       < Qdes
   Q  updated because of Pump Capacity restraint and/or Seepage Face calculation
 
 SOLVING FOR HEAD 
 
MNW2 Well Conductance and Screen (Open Interval) Data
                              M O D E L  L A Y E R     W E L L  S C R E E N   Penetration    SKIN       CALCULATED
WELLID        Node    CWC*     top_elev    bott.elev    top_elev   bott.elev    fraction     COEFF.          B
WELL1            1   102.8        20.00       0.000       20.00       0.000      1.0000     -0.1792     -8.2511E-04          
WELL2            1   102.8        20.00       0.000       20.00       0.000      1.0000     -0.1792     -8.2511E-04          
WELL3            1   102.8        20.00       0.000       20.00       0.000      1.0000     -0.1792     -8.2511E-04          
* Cell-to-well conductance values (CWC) may change during the course of a stress period
 
  Capacity Q calculations stopped iter. no.   4 due to hwell change less than HWtol for well WELL1               
  with Pump-Capacity Q =   -3237.00000000000     
  Capacity Q calculations stopped iter. no.   4 due to hwell change less than HWtol for well WELL2               
  with Pump-Capacity Q =   -3237.00000000000     
  Capacity Q calculations stopped iter. no.   4 due to hwell change less than HWtol for well WELL3               
  with Pump-Capacity Q =   -3237.00000000000     

 NO OUTPUT CONTROL FOR STRESS PERIOD    7   TIME STEP    3
 
  MNW2 WELL: WELL1                Qnet =   -1749.61546284050       < Qdes
   Q  updated because of Pump Capacity restraint and/or Seepage Face calculation
 
  MNW2 WELL: WELL2                Qnet =   -1888.75487856718       < Qdes
   Q  updated because of Pump Capacity restraint and/or Seepage Face calculation
 
  MNW2 WELL: WELL3                Qnet =   -1893.98965779889       < Qdes
   Q  updated because of Pump Capacity restraint and/or Seepage Face calculation
 
 SOLVING FOR HEAD 
 
MNW2 Well Conductance and Screen (Open Interval) Data
                              M O D E L  L A Y E R     W E L L  S C R E E N   Penetration    SKIN       CALCULATED
WELLID        Node    CWC*     top_elev    bott.elev    top_elev   bott.elev    fraction     COEFF.          B
WELL1            1   102.8        20.00       0.000       20.00       0.000      1.0000     -0.1792     -8.2511E-04          
WELL2            1   102.8        20.00       0.000       20.00       0.000      1.0000     -0.1792     -8.2511E-04          
WELL3            1   102.8        20.00       0.000       20.00       0.000      1.0000     -0.1792     -8.2511E-04          
* Cell-to-well conductance values (CWC) may change during the course of a stress period
 
  Capacity Q calculations stopped iter. no.   4 due to hwell change less than HWtol for well WELL1               
  with Pump-Capacity Q =   -3237.00000000000     
  Capacity Q calculations stopped iter. no.   4 due to hwell change less than HWtol for well WELL2               
  with Pump-Capacity Q =   -3237.00000000000     
  Capacity Q calculations stopped iter. no.   4 due to hwell change less than HWtol for well WELL3               
  with Pump-Capacity Q =   -3237.00000000000     

 NO OUTPUT CONTROL FOR STRESS PERIOD    7   TIME STEP    4
 
  MNW2 WELL: WELL1                Qnet =   -1741.97708837620       < Qdes
   Q  updated because of Pump Capacity restraint and/or Seepage Face calculation
 
  MNW2 WELL: WELL2                Qnet =   -1880.59520556754       < Qdes
   Q  updated because of Pump Capacity restraint and/or Seepage Face calculation
 
  MNW2 WELL: WELL3                Qnet =   -1885.91269708220       < Qdes
   Q  updated because of Pump Capacity restraint and/or Seepage Face calculation
 
 SOLVING FOR HEAD 
 
MNW2 Well Conductance and Screen (Open Interval) Data
                              M O D E L  L A Y E R     W E L L  S C R E E N   Penetration    SKIN       CALCULATED
WELLID        Node    CWC*     top_elev    bott.elev    top_elev   bott.elev    fraction     COEFF.          B
WELL1            1   102.8        20.00       0.000       20.00       0.000      1.0000     -0.1792     -8.2511E-04          
WELL2            1   102.8        20.00       0.000       20.00       0.000      1.0000     -0.1792     -8.2511E-04          
WELL3            1   102.8        20.00       0.000       20.00       0.000      1.0000     -0.1792     -8.2511E-04          
* Cell-to-well conductance values (CWC) may change during the course of a stress period
 
  Capacity Q calculations stopped iter. no.   4 due to hwell change less than HWtol for well WELL1               
  with Pump-Capacity Q =   -3237.00000000000     
  Capacity Q calculations stopped iter. no.   4 due to hwell change less than HWtol for well WELL2               
  with Pump-Capacity Q =   -3237.00000000000     
  Capacity Q calculations stopped iter. no.   4 due to hwell change less than HWtol for well WELL3               
  with Pump-Capacity Q =   -3237.00000000000     

 NO OUTPUT CONTROL FOR STRESS PERIOD    7   TIME STEP    5
 
  MNW2 WELL: WELL1                Qnet =   -1734.49774170926       < Qdes
   Q  updated because of Pump Capacity restraint and/or Seepage Face calculation
 
  MNW2 WELL: WELL2                Qnet =   -1872.58875460832       < Qdes
   Q  updated because of Pump Capacity restraint and/or Seepage Face calculation
 
  MNW2 WELL: WELL3                Qnet =   -1877.98593529717       < Qdes
   Q  updated because of Pump Capacity restraint and/or Seepage Face calculation
 
 SOLVING FOR HEAD 
 
MNW2 Well Conductance and Screen (Open Interval) Data
                              M O D E L  L A Y E R     W E L L  S C R E E N   Penetration    SKIN       CALCULATED
WELLID        Node    CWC*     top_elev    bott.elev    top_elev   bott.elev    fraction     COEFF.          B
WELL1            1   102.8        20.00       0.000       20.00       0.000      1.0000     -0.1792     -8.2511E-04          
WELL2            1   102.8        20.00       0.000       20.00       0.000      1.0000     -0.1792     -8.2511E-04          
WELL3            1   102.8        20.00       0.000       20.00       0.000      1.0000     -0.1792     -8.2511E-04          
* Cell-to-well conductance values (CWC) may change during the course of a stress period
 
  Capacity Q calculations stopped iter. no.   4 due to hwell change less than HWtol for well WELL1               
  with Pump-Capacity Q =   -3237.00000000000     
  Capacity Q calculations stopped iter. no.   4 due to hwell change less than HWtol for well WELL2               
  with Pump-Capacity Q =   -3237.00000000000     
  Capacity Q calculations stopped iter. no.   4 due to hwell change less than HWtol for well WELL3               
  with Pump-Capacity Q =   -3237.00000000000     

 NO OUTPUT CONTROL FOR STRESS PERIOD    7   TIME STEP    6
 
  MNW2 WELL: WELL1                Qnet =   -1727.17017700760       < Qdes
   Q  updated because of Pump Capacity restraint and/or Seepage Face calculation
 
  MNW2 WELL: WELL2                Qnet =   -1864.72971486869       < Qdes
   Q  updated because of Pump Capacity restraint and/or Seepage Face calculation
 
  MNW2 WELL: WELL3                Qnet =   -1870.20360882309       < Qdes
   Q  updated because of Pump Capacity restraint and/or Seepage Face calculation
 
 SOLVING FOR HEAD 
 
MNW2 Well Conductance and Screen (Open Interval) Data
                              M O D E L  L A Y E R     W E L L  S C R E E N   Penetration    SKIN       CALCULATED
WELLID        Node    CWC*     top_elev    bott.elev    top_elev   bott.elev    fraction     COEFF.          B
WELL1            1   102.8        20.00       0.000       20.00       0.000      1.0000     -0.1792     -8.2511E-04          
WELL2            1   102.8        20.00       0.000       20.00       0.000      1.0000     -0.1792     -8.2511E-04          
WELL3            1   102.8        20.00       0.000       20.00       0.000      1.0000     -0.1792     -8.2511E-04          
* Cell-to-well conductance values (CWC) may change during the course of a stress period
 
  Capacity Q calculations stopped iter. no.   4 due to hwell change less than HWtol for well WELL1               
  with Pump-Capacity Q =   -3237.00000000000     
  Capacity Q calculations stopped iter. no.   4 due to hwell change less than HWtol for well WELL2               
  with Pump-Capacity Q =   -3237.00000000000     
  Capacity Q calculations stopped iter. no.   4 due to hwell change less than HWtol for well WELL3               
  with Pump-Capacity Q =   -3237.00000000000     

 NO OUTPUT CONTROL FOR STRESS PERIOD    7   TIME STEP    7
 
  MNW2 WELL: WELL1                Qnet =   -1719.98764830236       < Qdes
   Q  updated because of Pump Capacity restraint and/or Seepage Face calculation
 
  MNW2 WELL: WELL2                Qnet =   -1857.01259474876       < Qdes
   Q  updated because of Pump Capacity restraint and/or Seepage Face calculation
 
  MNW2 WELL: WELL3                Qnet =   -1862.56029999083       < Qdes
   Q  updated because of Pump Capacity restraint and/or Seepage Face calculation
 
 SOLVING FOR HEAD 
 
MNW2 Well Conductance and Screen (Open Interval) Data
                              M O D E L  L A Y E R     W E L L  S C R E E N   Penetration    SKIN       CALCULATED
WELLID        Node    CWC*     top_elev    bott.elev    top_elev   bott.elev    fraction     COEFF.          B
WELL1            1   102.8        20.00       0.000       20.00       0.000      1.0000     -0.1792     -8.2511E-04          
WELL2            1   102.8        20.00       0.000       20.00       0.000      1.0000     -0.1792     -8.2511E-04          
WELL3            1   102.8        20.00       0.000       20.00       0.000      1.0000     -0.1792     -8.2511E-04          
* Cell-to-well conductance values (CWC) may change during the course of a stress period
 
  Capacity Q calculations stopped iter. no.   4 due to hwell change less than HWtol for well WELL1               
  with Pump-Capacity Q =   -3237.00000000000     
  Capacity Q calculations stopped iter. no.   4 due to hwell change less than HWtol for well WELL2               
  with Pump-Capacity Q =   -3237.00000000000     
  Capacity Q calculations stopped iter. no.   4 due to hwell change less than HWtol for well WELL3               
  with Pump-Capacity Q =   -3237.00000000000     

 NO OUTPUT CONTROL FOR STRESS PERIOD    7   TIME STEP    8
 
  MNW2 WELL: WELL1                Qnet =   -1712.94385872952       < Qdes
   Q  updated because of Pump Capacity restraint and/or Seepage Face calculation
 
  MNW2 WELL: WELL2                Qnet =   -1849.43224726842       < Qdes
   Q  updated because of Pump Capacity restraint and/or Seepage Face calculation
 
  MNW2 WELL: WELL3                Qnet =   -1855.05092891332       < Qdes
   Q  updated because of Pump Capacity restraint and/or Seepage Face calculation
 
 SOLVING FOR HEAD 
 
MNW2 Well Conductance and Screen (Open Interval) Data
                              M O D E L  L A Y E R     W E L L  S C R E E N   Penetration    SKIN       CALCULATED
WELLID        Node    CWC*     top_elev    bott.elev    top_elev   bott.elev    fraction     COEFF.          B
WELL1            1   102.8        20.00       0.000       20.00       0.000      1.0000     -0.1792     -8.2511E-04          
WELL2            1   102.8        20.00       0.000       20.00       0.000      1.0000     -0.1792     -8.2511E-04          
WELL3            1   102.8        20.00       0.000       20.00       0.000      1.0000     -0.1792     -8.2511E-04          
* Cell-to-well conductance values (CWC) may change during the course of a stress period
 
  Capacity Q calculations stopped iter. no.   4 due to hwell change less than HWtol for well WELL1               
  with Pump-Capacity Q =   -3237.00000000000     
  Capacity Q calculations stopped iter. no.   4 due to hwell change less than HWtol for well WELL2               
  with Pump-Capacity Q =   -3237.00000000000     
  Capacity Q calculations stopped iter. no.   4 due to hwell change less than HWtol for well WELL3               
  with Pump-Capacity Q =   -3237.00000000000     

 NO OUTPUT CONTROL FOR STRESS PERIOD    7   TIME STEP    9
 
  MNW2 WELL: WELL1                Qnet =   -1706.03297380599       < Qdes
   Q  updated because of Pump Capacity restraint and/or Seepage Face calculation
 
  MNW2 WELL: WELL2                Qnet =   -1841.98382341134       < Qdes
   Q  updated because of Pump Capacity restraint and/or Seepage Face calculation
 
  MNW2 WELL: WELL3                Qnet =   -1847.67070757851       < Qdes
   Q  updated because of Pump Capacity restraint and/or Seepage Face calculation
 
 SOLVING FOR HEAD 
 
MNW2 Well Conductance and Screen (Open Interval) Data
                              M O D E L  L A Y E R     W E L L  S C R E E N   Penetration    SKIN       CALCULATED
WELLID        Node    CWC*     top_elev    bott.elev    top_elev   bott.elev    fraction     COEFF.          B
WELL1            1   102.8        20.00       0.000       20.00       0.000      1.0000     -0.1792     -8.2511E-04          
WELL2            1   102.8        20.00       0.000       20.00       0.000      1.0000     -0.1792     -8.2511E-04          
WELL3            1   102.8        20.00       0.000       20.00       0.000      1.0000     -0.1792     -8.2511E-04          
* Cell-to-well conductance values (CWC) may change during the course of a stress period
 
  Capacity Q calculations stopped iter. no.   4 due to hwell change less than HWtol for well WELL1               
  with Pump-Capacity Q =   -3237.00000000000     
  Capacity Q calculations stopped iter. no.   4 due to hwell change less than HWtol for well WELL2               
  with Pump-Capacity Q =   -3237.00000000000     
  Capacity Q calculations stopped iter. no.   4 due to hwell change less than HWtol for well WELL3               
  with Pump-Capacity Q =   -3237.00000000000     

 OUTPUT CONTROL FOR STRESS PERIOD    7   TIME STEP   10
    SAVE HEAD FOR ALL LAYERS
    SAVE BUDGET
 UBDSV1 SAVING "         STORAGE" ON UNIT  53 AT TIME STEP 10, STRESS PERIOD   7
 UBDSV2 SAVING "   CONSTANT HEAD" ON UNIT  53 AT TIME STEP 10, STRESS PERIOD   7
 UBDSV1 SAVING "FLOW RIGHT FACE " ON UNIT  53 AT TIME STEP 10, STRESS PERIOD   7
 UBDSV1 SAVING "FLOW FRONT FACE " ON UNIT  53 AT TIME STEP 10, STRESS PERIOD   7
 UBDSV1 SAVING "FLOW LOWER FACE " ON UNIT  53 AT TIME STEP 10, STRESS PERIOD   7

 Nodal information for all MNW2 wells, PERIOD =    7  STEP =   10
WELLID                NODE   Lay   Row   Col        Totim        Q-node         hwell         hcell    Seepage elev.
WELL1                    1     2    50    50   1.926000E+03 -1.699250E+03  1.653740E+01  1.653740E+01
WELL2                    1     2    30    50   1.926000E+03 -1.834663E+03  1.785527E+01  1.785527E+01
WELL3                    1     2    70    50   1.926000E+03 -1.840415E+03  1.791125E+01  1.791125E+01

     Summary information for MNW2 wells
WELLID                    Totim            Qin           Qout           Qnet          hwell
 
  MNW2 WELL: WELL1                Qnet =   -1699.24950389305       < Qdes
   Q  updated because of Pump Capacity restraint and/or Seepage Face calculation
WELL1                   1926.00       -1699.25        0.00000       -1699.25        16.5374    
 
  MNW2 WELL: WELL2                Qnet =   -1834.66274594918       < Qdes
   Q  updated because of Pump Capacity restraint and/or Seepage Face calculation
WELL2                   1926.00       -1834.66        0.00000       -1834.66        17.8553    
 
  MNW2 WELL: WELL3                Qnet =   -1840.41511728530       < Qdes
   Q  updated because of Pump Capacity restraint and/or Seepage Face calculation
WELL3                   1926.00       -1840.42        0.00000       -1840.42        17.9113    
 
 UBUDSV SAVING "            MNW2" ON UNIT 90 AT TIME STEP 10, STRESS PERIOD    7

 HEAD WILL BE SAVED ON UNIT   51 AT END OF TIME STEP   10, STRESS PERIOD    7
1
  VOLUMETRIC BUDGET FOR ENTIRE MODEL AT END OF TIME STEP   10, STRESS PERIOD   7
  ------------------------------------------------------------------------------

     CUMULATIVE VOLUMES      L**3       RATES FOR THIS TIME STEP      L**3/T
     ------------------                 ------------------------

           IN:                                      IN:
           ---                                      ---
             STORAGE =    10349378.0000               STORAGE =        3516.9990
       CONSTANT HEAD =     1897187.7500         CONSTANT HEAD =        1857.3657
                MNW2 =           0.0000                  MNW2 =           0.0000

            TOTAL IN =    12246566.0000              TOTAL IN =        5374.3647

          OUT:                                     OUT:
          ----                                     ----
             STORAGE =           0.0000               STORAGE =           0.0000
       CONSTANT HEAD =           0.0000         CONSTANT HEAD =           0.0000
                MNW2 =    12246495.0000                  MNW2 =        5374.3271

           TOTAL OUT =    12246495.0000             TOTAL OUT =        5374.3271

            IN - OUT =          71.0000              IN - OUT =       3.7598E-02

 PERCENT DISCREPANCY =           0.00     PERCENT DISCREPANCY =           0.00






         TIME SUMMARY AT END OF TIME STEP   10 IN STRESS PERIOD    7
                    SECONDS     MINUTES      HOURS       DAYS        YEARS
                    -----------------------------------------------------------
   TIME STEP LENGTH 3.15360E+06  52560.      876.00      36.500     9.99316E-02
 STRESS PERIOD TIME 3.15360E+07 5.25600E+05  8760.0      365.00     0.99932    
         TOTAL TIME 1.66406E+08 2.77344E+06  46224.      1926.0      5.2731    
1
1
                            STRESS PERIOD NO.    8, LENGTH =   365.0000    
                            -----------------------------------------------

                              NUMBER OF TIME STEPS =    10

                               MULTIPLIER FOR DELT =     1.000

                            INITIAL TIME STEP SIZE =   36.50000    
 
 MNW2:            3  active wells in stress period            8
 
 
 WELLNAME = WELL1               
MNW2 Well well1                active, desired Q = -3.2370E+03 for stress period    8
 
Reference head for calculating lift =   1.0000E+01
Pump Capacity Multiplier =   1.0000E+00
HWtol =   1.0000E-02
     (Note: Solution may be sensitive to value of HWtol; adjust value if solution fails to converge.)
 
   Well Capacity Table
    Lift       Discharge
   80.000       0.000    
   75.000       809.0    
   70.000       1618.    
   65.000       2427.    
   60.000       3235.    
  1.00000       3236.    
   0.0000       3237.    
 
 WELLNAME = WELL2               
MNW2 Well well2                active, desired Q = -3.2370E+03 for stress period    8
 
Reference head for calculating lift =   1.0000E+01
Pump Capacity Multiplier =   1.0000E+00
HWtol =   1.0000E-02
     (Note: Solution may be sensitive to value of HWtol; adjust value if solution fails to converge.)
 
   Well Capacity Table
    Lift       Discharge
   80.000       0.000    
   75.000       809.0    
   70.000       1618.    
   65.000       2427.    
   60.000       3235.    
  1.00000       3236.    
   0.0000       3237.    
 
 WELLNAME = WELL3               
MNW2 Well well3                active, desired Q = -3.2370E+03 for stress period    8
 
Reference head for calculating lift =   1.0000E+01
Pump Capacity Multiplier =   1.0000E+00
HWtol =   1.0000E-02
     (Note: Solution may be sensitive to value of HWtol; adjust value if solution fails to converge.)
 
   Well Capacity Table
    Lift       Discharge
   80.000       0.000    
   75.000       809.0    
   70.000       1618.    
   65.000       2427.    
   60.000       3235.    
  1.00000       3236.    
   0.0000       3237.    
 
 SOLVING FOR HEAD 
 
MNW2 Well Conductance and Screen (Open Interval) Data
                              M O D E L  L A Y E R     W E L L  S C R E E N   Penetration    SKIN       CALCULATED
WELLID        Node    CWC*     top_elev    bott.elev    top_elev   bott.elev    fraction     COEFF.          B
WELL1            1   102.8        20.00       0.000       20.00       0.000      1.0000     -0.1792     -8.2511E-04          
WELL2            1   102.8        20.00       0.000       20.00       0.000      1.0000     -0.1792     -8.2511E-04          
WELL3            1   102.8        20.00       0.000       20.00       0.000      1.0000     -0.1792     -8.2511E-04          
* Cell-to-well conductance values (CWC) may change during the course of a stress period
 
  Capacity Q calculations stopped iter. no.   4 due to hwell change less than HWtol for well WELL1               
  with Pump-Capacity Q =   -3237.00000000000     
  Capacity Q calculations stopped iter. no.   4 due to hwell change less than HWtol for well WELL2               
  with Pump-Capacity Q =   -3237.00000000000     
  Capacity Q calculations stopped iter. no.   4 due to hwell change less than HWtol for well WELL3               
  with Pump-Capacity Q =   -3237.00000000000     

 NO OUTPUT CONTROL FOR STRESS PERIOD    8   TIME STEP    1
 
  MNW2 WELL: WELL1                Qnet =   -1692.58834542499       < Qdes
   Q  updated because of Pump Capacity restraint and/or Seepage Face calculation
 
  MNW2 WELL: WELL2                Qnet =   -1827.46468399120       < Qdes
   Q  updated because of Pump Capacity restraint and/or Seepage Face calculation
 
  MNW2 WELL: WELL3                Qnet =   -1833.27990907651       < Qdes
   Q  updated because of Pump Capacity restraint and/or Seepage Face calculation
 
 SOLVING FOR HEAD 
 
MNW2 Well Conductance and Screen (Open Interval) Data
                              M O D E L  L A Y E R     W E L L  S C R E E N   Penetration    SKIN       CALCULATED
WELLID        Node    CWC*     top_elev    bott.elev    top_elev   bott.elev    fraction     COEFF.          B
WELL1            1   102.8        20.00       0.000       20.00       0.000      1.0000     -0.1792     -8.2511E-04          
WELL2            1   102.8        20.00       0.000       20.00       0.000      1.0000     -0.1792     -8.2511E-04          
WELL3            1   102.8        20.00       0.000       20.00       0.000      1.0000     -0.1792     -8.2511E-04          
* Cell-to-well conductance values (CWC) may change during the course of a stress period
 
  Capacity Q calculations stopped iter. no.   4 due to hwell change less than HWtol for well WELL1               
  with Pump-Capacity Q =   -3237.00000000000     
  Capacity Q calculations stopped iter. no.   4 due to hwell change less than HWtol for well WELL2               
  with Pump-Capacity Q =   -3237.00000000000     
  Capacity Q calculations stopped iter. no.   4 due to hwell change less than HWtol for well WELL3               
  with Pump-Capacity Q =   -3237.00000000000     

 NO OUTPUT CONTROL FOR STRESS PERIOD    8   TIME STEP    2
 
  MNW2 WELL: WELL1                Qnet =   -1686.04472943404       < Qdes
   Q  updated because of Pump Capacity restraint and/or Seepage Face calculation
 
  MNW2 WELL: WELL2                Qnet =   -1820.38554952187       < Qdes
   Q  updated because of Pump Capacity restraint and/or Seepage Face calculation
 
  MNW2 WELL: WELL3                Qnet =   -1826.26106137208       < Qdes
   Q  updated because of Pump Capacity restraint and/or Seepage Face calculation
 
 SOLVING FOR HEAD 
 
MNW2 Well Conductance and Screen (Open Interval) Data
                              M O D E L  L A Y E R     W E L L  S C R E E N   Penetration    SKIN       CALCULATED
WELLID        Node    CWC*     top_elev    bott.elev    top_elev   bott.elev    fraction     COEFF.          B
WELL1            1   102.8        20.00       0.000       20.00       0.000      1.0000     -0.1792     -8.2511E-04          
WELL2            1   102.8        20.00       0.000       20.00       0.000      1.0000     -0.1792     -8.2511E-04          
WELL3            1   102.8        20.00       0.000       20.00       0.000      1.0000     -0.1792     -8.2511E-04          
* Cell-to-well conductance values (CWC) may change during the course of a stress period
 
  Capacity Q calculations stopped iter. no.   4 due to hwell change less than HWtol for well WELL1               
  with Pump-Capacity Q =   -3237.00000000000     
  Capacity Q calculations stopped iter. no.   4 due to hwell change less than HWtol for well WELL2               
  with Pump-Capacity Q =   -3237.00000000000     
  Capacity Q calculations stopped iter. no.   4 due to hwell change less than HWtol for well WELL3               
  with Pump-Capacity Q =   -3237.00000000000     

 NO OUTPUT CONTROL FOR STRESS PERIOD    8   TIME STEP    3
 
  MNW2 WELL: WELL1                Qnet =   -1679.61417748774       < Qdes
   Q  updated because of Pump Capacity restraint and/or Seepage Face calculation
 
  MNW2 WELL: WELL2                Qnet =   -1813.42148966689       < Qdes
   Q  updated because of Pump Capacity restraint and/or Seepage Face calculation
 
  MNW2 WELL: WELL3                Qnet =   -1819.35478598312       < Qdes
   Q  updated because of Pump Capacity restraint and/or Seepage Face calculation
 
 SOLVING FOR HEAD 
 
MNW2 Well Conductance and Screen (Open Interval) Data
                              M O D E L  L A Y E R     W E L L  S C R E E N   Penetration    SKIN       CALCULATED
WELLID        Node    CWC*     top_elev    bott.elev    top_elev   bott.elev    fraction     COEFF.          B
WELL1            1   102.8        20.00       0.000       20.00       0.000      1.0000     -0.1792     -8.2511E-04          
WELL2            1   102.8        20.00       0.000       20.00       0.000      1.0000     -0.1792     -8.2511E-04          
WELL3            1   102.8        20.00       0.000       20.00       0.000      1.0000     -0.1792     -8.2511E-04          
* Cell-to-well conductance values (CWC) may change during the course of a stress period
 
  Capacity Q calculations stopped iter. no.   4 due to hwell change less than HWtol for well WELL1               
  with Pump-Capacity Q =   -3237.00000000000     
  Capacity Q calculations stopped iter. no.   4 due to hwell change less than HWtol for well WELL2               
  with Pump-Capacity Q =   -3237.00000000000     
  Capacity Q calculations stopped iter. no.   4 due to hwell change less than HWtol for well WELL3               
  with Pump-Capacity Q =   -3237.00000000000     

 NO OUTPUT CONTROL FOR STRESS PERIOD    8   TIME STEP    4
 
  MNW2 WELL: WELL1                Qnet =   -1673.29249992939       < Qdes
   Q  updated because of Pump Capacity restraint and/or Seepage Face calculation
 
  MNW2 WELL: WELL2                Qnet =   -1806.56884326808       < Qdes
   Q  updated because of Pump Capacity restraint and/or Seepage Face calculation
 
  MNW2 WELL: WELL3                Qnet =   -1812.55750398174       < Qdes
   Q  updated because of Pump Capacity restraint and/or Seepage Face calculation
 
 SOLVING FOR HEAD 
 
MNW2 Well Conductance and Screen (Open Interval) Data
                              M O D E L  L A Y E R     W E L L  S C R E E N   Penetration    SKIN       CALCULATED
WELLID        Node    CWC*     top_elev    bott.elev    top_elev   bott.elev    fraction     COEFF.          B
WELL1            1   102.8        20.00       0.000       20.00       0.000      1.0000     -0.1792     -8.2511E-04          
WELL2            1   102.8        20.00       0.000       20.00       0.000      1.0000     -0.1792     -8.2511E-04          
WELL3            1   102.8        20.00       0.000       20.00       0.000      1.0000     -0.1792     -8.2511E-04          
* Cell-to-well conductance values (CWC) may change during the course of a stress period
 
  Capacity Q calculations stopped iter. no.   4 due to hwell change less than HWtol for well WELL1               
  with Pump-Capacity Q =   -3237.00000000000     
  Capacity Q calculations stopped iter. no.   4 due to hwell change less than HWtol for well WELL2               
  with Pump-Capacity Q =   -3237.00000000000     
  Capacity Q calculations stopped iter. no.   4 due to hwell change less than HWtol for well WELL3               
  with Pump-Capacity Q =   -3237.00000000000     

 NO OUTPUT CONTROL FOR STRESS PERIOD    8   TIME STEP    5
 
  MNW2 WELL: WELL1                Qnet =   -1667.07573789089       < Qdes
   Q  updated because of Pump Capacity restraint and/or Seepage Face calculation
 
  MNW2 WELL: WELL2                Qnet =   -1799.82411931691       < Qdes
   Q  updated because of Pump Capacity restraint and/or Seepage Face calculation
 
  MNW2 WELL: WELL3                Qnet =   -1805.86578103173       < Qdes
   Q  updated because of Pump Capacity restraint and/or Seepage Face calculation
 
 SOLVING FOR HEAD 
 
MNW2 Well Conductance and Screen (Open Interval) Data
                              M O D E L  L A Y E R     W E L L  S C R E E N   Penetration    SKIN       CALCULATED
WELLID        Node    CWC*     top_elev    bott.elev    top_elev   bott.elev    fraction     COEFF.          B
WELL1            1   102.8        20.00       0.000       20.00       0.000      1.0000     -0.1792     -8.2511E-04          
WELL2            1   102.8        20.00       0.000       20.00       0.000      1.0000     -0.1792     -8.2511E-04          
WELL3            1   102.8        20.00       0.000       20.00       0.000      1.0000     -0.1792     -8.2511E-04          
* Cell-to-well conductance values (CWC) may change during the course of a stress period
 
  Capacity Q calculations stopped iter. no.   4 due to hwell change less than HWtol for well WELL1               
  with Pump-Capacity Q =   -3237.00000000000     
  Capacity Q calculations stopped iter. no.   4 due to hwell change less than HWtol for well WELL2               
  with Pump-Capacity Q =   -3237.00000000000     
  Capacity Q calculations stopped iter. no.   4 due to hwell change less than HWtol for well WELL3               
  with Pump-Capacity Q =   -3237.00000000000     

 NO OUTPUT CONTROL FOR STRESS PERIOD    8   TIME STEP    6
 
  MNW2 WELL: WELL1                Qnet =   -1660.96020510524       < Qdes
   Q  updated because of Pump Capacity restraint and/or Seepage Face calculation
 
  MNW2 WELL: WELL2                Qnet =   -1793.18403450181       < Qdes
   Q  updated because of Pump Capacity restraint and/or Seepage Face calculation
 
  MNW2 WELL: WELL3                Qnet =   -1799.27639900054       < Qdes
   Q  updated because of Pump Capacity restraint and/or Seepage Face calculation
 
 SOLVING FOR HEAD 
 
MNW2 Well Conductance and Screen (Open Interval) Data
                              M O D E L  L A Y E R     W E L L  S C R E E N   Penetration    SKIN       CALCULATED
WELLID        Node    CWC*     top_elev    bott.elev    top_elev   bott.elev    fraction     COEFF.          B
WELL1            1   102.8        20.00       0.000       20.00       0.000      1.0000     -0.1792     -8.2511E-04          
WELL2            1   102.8        20.00       0.000       20.00       0.000      1.0000     -0.1792     -8.2511E-04          
WELL3            1   102.8        20.00       0.000       20.00       0.000      1.0000     -0.1792     -8.2511E-04          
* Cell-to-well conductance values (CWC) may change during the course of a stress period
 
  Capacity Q calculations stopped iter. no.   4 due to hwell change less than HWtol for well WELL1               
  with Pump-Capacity Q =   -3237.00000000000     
  Capacity Q calculations stopped iter. no.   4 due to hwell change less than HWtol for well WELL2               
  with Pump-Capacity Q =   -3237.00000000000     
  Capacity Q calculations stopped iter. no.   4 due to hwell change less than HWtol for well WELL3               
  with Pump-Capacity Q =   -3237.00000000000     

 NO OUTPUT CONTROL FOR STRESS PERIOD    8   TIME STEP    7
 
  MNW2 WELL: WELL1                Qnet =   -1654.94241834991       < Qdes
   Q  updated because of Pump Capacity restraint and/or Seepage Face calculation
 
  MNW2 WELL: WELL2                Qnet =   -1786.64547275628       < Qdes
   Q  updated because of Pump Capacity restraint and/or Seepage Face calculation
 
  MNW2 WELL: WELL3                Qnet =   -1792.78630100688       < Qdes
   Q  updated because of Pump Capacity restraint and/or Seepage Face calculation
 
 SOLVING FOR HEAD 
 
MNW2 Well Conductance and Screen (Open Interval) Data
                              M O D E L  L A Y E R     W E L L  S C R E E N   Penetration    SKIN       CALCULATED
WELLID        Node    CWC*     top_elev    bott.elev    top_elev   bott.elev    fraction     COEFF.          B
WELL1            1   102.8        20.00       0.000       20.00       0.000      1.0000     -0.1792     -8.2511E-04          
WELL2            1   102.8        20.00       0.000       20.00       0.000      1.0000     -0.1792     -8.2511E-04          
WELL3            1   102.8        20.00       0.000       20.00       0.000      1.0000     -0.1792     -8.2511E-04          
* Cell-to-well conductance values (CWC) may change during the course of a stress period
 
  Capacity Q calculations stopped iter. no.   4 due to hwell change less than HWtol for well WELL1               
  with Pump-Capacity Q =   -3237.00000000000     
  Capacity Q calculations stopped iter. no.   4 due to hwell change less than HWtol for well WELL2               
  with Pump-Capacity Q =   -3237.00000000000     
  Capacity Q calculations stopped iter. no.   4 due to hwell change less than HWtol for well WELL3               
  with Pump-Capacity Q =   -3237.00000000000     

 NO OUTPUT CONTROL FOR STRESS PERIOD    8   TIME STEP    8
 
  MNW2 WELL: WELL1                Qnet =   -1649.01908181755       < Qdes
   Q  updated because of Pump Capacity restraint and/or Seepage Face calculation
 
  MNW2 WELL: WELL2                Qnet =   -1780.20543772836       < Qdes
   Q  updated because of Pump Capacity restraint and/or Seepage Face calculation
 
  MNW2 WELL: WELL3                Qnet =   -1786.39258678707       < Qdes
   Q  updated because of Pump Capacity restraint and/or Seepage Face calculation
 
 SOLVING FOR HEAD 
 
MNW2 Well Conductance and Screen (Open Interval) Data
                              M O D E L  L A Y E R     W E L L  S C R E E N   Penetration    SKIN       CALCULATED
WELLID        Node    CWC*     top_elev    bott.elev    top_elev   bott.elev    fraction     COEFF.          B
WELL1            1   102.8        20.00       0.000       20.00       0.000      1.0000     -0.1792     -8.2511E-04          
WELL2            1   102.8        20.00       0.000       20.00       0.000      1.0000     -0.1792     -8.2511E-04          
WELL3            1   102.8        20.00       0.000       20.00       0.000      1.0000     -0.1792     -8.2511E-04          
* Cell-to-well conductance values (CWC) may change during the course of a stress period
 
  Capacity Q calculations stopped iter. no.   4 due to hwell change less than HWtol for well WELL1               
  with Pump-Capacity Q =   -3237.00000000000     
  Capacity Q calculations stopped iter. no.   4 due to hwell change less than HWtol for well WELL2               
  with Pump-Capacity Q =   -3237.00000000000     
  Capacity Q calculations stopped iter. no.   4 due to hwell change less than HWtol for well WELL3               
  with Pump-Capacity Q =   -3237.00000000000     

 NO OUTPUT CONTROL FOR STRESS PERIOD    8   TIME STEP    9
 
  MNW2 WELL: WELL1                Qnet =   -1643.18711936193       < Qdes
   Q  updated because of Pump Capacity restraint and/or Seepage Face calculation
 
  MNW2 WELL: WELL2                Qnet =   -1773.86111883495       < Qdes
   Q  updated because of Pump Capacity restraint and/or Seepage Face calculation
 
  MNW2 WELL: WELL3                Qnet =   -1780.09249437204       < Qdes
   Q  updated because of Pump Capacity restraint and/or Seepage Face calculation
 
 SOLVING FOR HEAD 
 
MNW2 Well Conductance and Screen (Open Interval) Data
                              M O D E L  L A Y E R     W E L L  S C R E E N   Penetration    SKIN       CALCULATED
WELLID        Node    CWC*     top_elev    bott.elev    top_elev   bott.elev    fraction     COEFF.          B
WELL1            1   102.8        20.00       0.000       20.00       0.000      1.0000     -0.1792     -8.2511E-04          
WELL2            1   102.8        20.00       0.000       20.00       0.000      1.0000     -0.1792     -8.2511E-04          
WELL3            1   102.8        20.00       0.000       20.00       0.000      1.0000     -0.1792     -8.2511E-04          
* Cell-to-well conductance values (CWC) may change during the course of a stress period
 
  Capacity Q calculations stopped iter. no.   4 due to hwell change less than HWtol for well WELL1               
  with Pump-Capacity Q =   -3237.00000000000     
  Capacity Q calculations stopped iter. no.   4 due to hwell change less than HWtol for well WELL2               
  with Pump-Capacity Q =   -3237.00000000000     
  Capacity Q calculations stopped iter. no.   4 due to hwell change less than HWtol for well WELL3               
  with Pump-Capacity Q =   -3237.00000000000     

 OUTPUT CONTROL FOR STRESS PERIOD    8   TIME STEP   10
    SAVE HEAD FOR ALL LAYERS
    SAVE BUDGET
 UBDSV1 SAVING "         STORAGE" ON UNIT  53 AT TIME STEP 10, STRESS PERIOD   8
 UBDSV2 SAVING "   CONSTANT HEAD" ON UNIT  53 AT TIME STEP 10, STRESS PERIOD   8
 UBDSV1 SAVING "FLOW RIGHT FACE " ON UNIT  53 AT TIME STEP 10, STRESS PERIOD   8
 UBDSV1 SAVING "FLOW FRONT FACE " ON UNIT  53 AT TIME STEP 10, STRESS PERIOD   8
 UBDSV1 SAVING "FLOW LOWER FACE " ON UNIT  53 AT TIME STEP 10, STRESS PERIOD   8

 Nodal information for all MNW2 wells, PERIOD =    8  STEP =   10
WELLID                NODE   Lay   Row   Col        Totim        Q-node         hwell         hcell    Seepage elev.
WELL1                    1     2    50    50   2.291000E+03 -1.637444E+03  1.593590E+01  1.593590E+01
WELL2                    1     2    30    50   2.291000E+03 -1.767610E+03  1.720270E+01  1.720270E+01
WELL3                    1     2    70    50   2.291000E+03 -1.773883E+03  1.726375E+01  1.726375E+01

     Summary information for MNW2 wells
WELLID                    Totim            Qin           Qout           Qnet          hwell
 
  MNW2 WELL: WELL1                Qnet =   -1637.44360742852       < Qdes
   Q  updated because of Pump Capacity restraint and/or Seepage Face calculation
WELL1                   2291.00       -1637.44        0.00000       -1637.44        15.9359    
 
  MNW2 WELL: WELL2                Qnet =   -1767.60982135778       < Qdes
   Q  updated because of Pump Capacity restraint and/or Seepage Face calculation
WELL2                   2291.00       -1767.61        0.00000       -1767.61        17.2027    
 
  MNW2 WELL: WELL3                Qnet =   -1773.88338774178       < Qdes
   Q  updated because of Pump Capacity restraint and/or Seepage Face calculation
WELL3                   2291.00       -1773.88        0.00000       -1773.88        17.2638    
 
 UBUDSV SAVING "            MNW2" ON UNIT 90 AT TIME STEP 10, STRESS PERIOD    8

 HEAD WILL BE SAVED ON UNIT   51 AT END OF TIME STEP   10, STRESS PERIOD    8
1
  VOLUMETRIC BUDGET FOR ENTIRE MODEL AT END OF TIME STEP   10, STRESS PERIOD   8
  ------------------------------------------------------------------------------

     CUMULATIVE VOLUMES      L**3       RATES FOR THIS TIME STEP      L**3/T
     ------------------                 ------------------------

           IN:                                      IN:
           ---                                      ---
             STORAGE =    11551167.0000               STORAGE =        3120.2910
       CONSTANT HEAD =     2616885.5000         CONSTANT HEAD =        2058.6833
                MNW2 =           0.0000                  MNW2 =           0.0000

            TOTAL IN =    14168052.0000              TOTAL IN =        5178.9746

          OUT:                                     OUT:
          ----                                     ----
             STORAGE =           0.0000               STORAGE =           0.0000
       CONSTANT HEAD =           0.0000         CONSTANT HEAD =           0.0000
                MNW2 =    14167968.0000                  MNW2 =        5178.9370

           TOTAL OUT =    14167968.0000             TOTAL OUT =        5178.9370

            IN - OUT =          84.0000              IN - OUT =       3.7598E-02

 PERCENT DISCREPANCY =           0.00     PERCENT DISCREPANCY =           0.00






         TIME SUMMARY AT END OF TIME STEP   10 IN STRESS PERIOD    8
                    SECONDS     MINUTES      HOURS       DAYS        YEARS
                    -----------------------------------------------------------
   TIME STEP LENGTH 3.15360E+06  52560.      876.00      36.500     9.99316E-02
 STRESS PERIOD TIME 3.15360E+07 5.25600E+05  8760.0      365.00     0.99932    
         TOTAL TIME 1.97942E+08 3.29904E+06  54984.      2291.0      6.2724    
1
1
                            STRESS PERIOD NO.    9, LENGTH =   365.0000    
                            -----------------------------------------------

                              NUMBER OF TIME STEPS =    10

                               MULTIPLIER FOR DELT =     1.000

                            INITIAL TIME STEP SIZE =   36.50000    
 
 MNW2:            3  active wells in stress period            9
 
 
 WELLNAME = WELL1               
MNW2 Well well1                active, desired Q = -3.2370E+03 for stress period    9
 
Reference head for calculating lift =   1.0000E+01
Pump Capacity Multiplier =   1.0000E+00
HWtol =   1.0000E-02
     (Note: Solution may be sensitive to value of HWtol; adjust value if solution fails to converge.)
 
   Well Capacity Table
    Lift       Discharge
   80.000       0.000    
   75.000       809.0    
   70.000       1618.    
   65.000       2427.    
   60.000       3235.    
  1.00000       3236.    
   0.0000       3237.    
 
 WELLNAME = WELL2               
MNW2 Well well2                active, desired Q = -3.2370E+03 for stress period    9
 
Reference head for calculating lift =   1.0000E+01
Pump Capacity Multiplier =   1.0000E+00
HWtol =   1.0000E-02
     (Note: Solution may be sensitive to value of HWtol; adjust value if solution fails to converge.)
 
   Well Capacity Table
    Lift       Discharge
   80.000       0.000    
   75.000       809.0    
   70.000       1618.    
   65.000       2427.    
   60.000       3235.    
  1.00000       3236.    
   0.0000       3237.    
 
 WELLNAME = WELL3               
MNW2 Well well3                active, desired Q = -3.2370E+03 for stress period    9
 
Reference head for calculating lift =   1.0000E+01
Pump Capacity Multiplier =   1.0000E+00
HWtol =   1.0000E-02
     (Note: Solution may be sensitive to value of HWtol; adjust value if solution fails to converge.)
 
   Well Capacity Table
    Lift       Discharge
   80.000       0.000    
   75.000       809.0    
   70.000       1618.    
   65.000       2427.    
   60.000       3235.    
  1.00000       3236.    
   0.0000       3237.    
 
 SOLVING FOR HEAD 
 
MNW2 Well Conductance and Screen (Open Interval) Data
                              M O D E L  L A Y E R     W E L L  S C R E E N   Penetration    SKIN       CALCULATED
WELLID        Node    CWC*     top_elev    bott.elev    top_elev   bott.elev    fraction     COEFF.          B
WELL1            1   102.8        20.00       0.000       20.00       0.000      1.0000     -0.1792     -8.2511E-04          
WELL2            1   102.8        20.00       0.000       20.00       0.000      1.0000     -0.1792     -8.2511E-04          
WELL3            1   102.8        20.00       0.000       20.00       0.000      1.0000     -0.1792     -8.2511E-04          
* Cell-to-well conductance values (CWC) may change during the course of a stress period
 
  Capacity Q calculations stopped iter. no.   4 due to hwell change less than HWtol for well WELL1               
  with Pump-Capacity Q =   -3237.00000000000     
  Capacity Q calculations stopped iter. no.   4 due to hwell change less than HWtol for well WELL2               
  with Pump-Capacity Q =   -3237.00000000000     
  Capacity Q calculations stopped iter. no.   4 due to hwell change less than HWtol for well WELL3               
  with Pump-Capacity Q =   -3237.00000000000     

 NO OUTPUT CONTROL FOR STRESS PERIOD    9   TIME STEP    1
 
  MNW2 WELL: WELL1                Qnet =   -1631.78579438285       < Qdes
   Q  updated because of Pump Capacity restraint and/or Seepage Face calculation
 
  MNW2 WELL: WELL2                Qnet =   -1761.44897074384       < Qdes
   Q  updated because of Pump Capacity restraint and/or Seepage Face calculation
 
  MNW2 WELL: WELL3                Qnet =   -1767.76276832298       < Qdes
   Q  updated because of Pump Capacity restraint and/or Seepage Face calculation
 
 SOLVING FOR HEAD 
 
MNW2 Well Conductance and Screen (Open Interval) Data
                              M O D E L  L A Y E R     W E L L  S C R E E N   Penetration    SKIN       CALCULATED
WELLID        Node    CWC*     top_elev    bott.elev    top_elev   bott.elev    fraction     COEFF.          B
WELL1            1   102.8        20.00       0.000       20.00       0.000      1.0000     -0.1792     -8.2511E-04          
WELL2            1   102.8        20.00       0.000       20.00       0.000      1.0000     -0.1792     -8.2511E-04          
WELL3            1   102.8        20.00       0.000       20.00       0.000      1.0000     -0.1792     -8.2511E-04          
* Cell-to-well conductance values (CWC) may change during the course of a stress period
 
  Capacity Q calculations stopped iter. no.   4 due to hwell change less than HWtol for well WELL1               
  with Pump-Capacity Q =   -3237.00000000000     
  Capacity Q calculations stopped iter. no.   4 due to hwell change less than HWtol for well WELL2               
  with Pump-Capacity Q =   -3237.00000000000     
  Capacity Q calculations stopped iter. no.   4 due to hwell change less than HWtol for well WELL3               
  with Pump-Capacity Q =   -3237.00000000000     

 NO OUTPUT CONTROL FOR STRESS PERIOD    9   TIME STEP    2
 
  MNW2 WELL: WELL1                Qnet =   -1626.21105924632       < Qdes
   Q  updated because of Pump Capacity restraint and/or Seepage Face calculation
 
  MNW2 WELL: WELL2                Qnet =   -1755.37613393065       < Qdes
   Q  updated because of Pump Capacity restraint and/or Seepage Face calculation
 
  MNW2 WELL: WELL3                Qnet =   -1761.72823927429       < Qdes
   Q  updated because of Pump Capacity restraint and/or Seepage Face calculation
 
 SOLVING FOR HEAD 
 
MNW2 Well Conductance and Screen (Open Interval) Data
                              M O D E L  L A Y E R     W E L L  S C R E E N   Penetration    SKIN       CALCULATED
WELLID        Node    CWC*     top_elev    bott.elev    top_elev   bott.elev    fraction     COEFF.          B
WELL1            1   102.8        20.00       0.000       20.00       0.000      1.0000     -0.1792     -8.2511E-04          
WELL2            1   102.8        20.00       0.000       20.00       0.000      1.0000     -0.1792     -8.2511E-04          
WELL3            1   102.8        20.00       0.000       20.00       0.000      1.0000     -0.1792     -8.2511E-04          
* Cell-to-well conductance values (CWC) may change during the course of a stress period
 
  Capacity Q calculations stopped iter. no.   4 due to hwell change less than HWtol for well WELL1               
  with Pump-Capacity Q =   -3237.00000000000     
  Capacity Q calculations stopped iter. no.   4 due to hwell change less than HWtol for well WELL2               
  with Pump-Capacity Q =   -3237.00000000000     
  Capacity Q calculations stopped iter. no.   4 due to hwell change less than HWtol for well WELL3               
  with Pump-Capacity Q =   -3237.00000000000     

 NO OUTPUT CONTROL FOR STRESS PERIOD    9   TIME STEP    3
 
  MNW2 WELL: WELL1                Qnet =   -1620.71695411433       < Qdes
   Q  updated because of Pump Capacity restraint and/or Seepage Face calculation
 
  MNW2 WELL: WELL2                Qnet =   -1749.38894605222       < Qdes
   Q  updated because of Pump Capacity restraint and/or Seepage Face calculation
 
  MNW2 WELL: WELL3                Qnet =   -1755.77754490687       < Qdes
   Q  updated because of Pump Capacity restraint and/or Seepage Face calculation
 
 SOLVING FOR HEAD 
 
MNW2 Well Conductance and Screen (Open Interval) Data
                              M O D E L  L A Y E R     W E L L  S C R E E N   Penetration    SKIN       CALCULATED
WELLID        Node    CWC*     top_elev    bott.elev    top_elev   bott.elev    fraction     COEFF.          B
WELL1            1   102.8        20.00       0.000       20.00       0.000      1.0000     -0.1792     -8.2511E-04          
WELL2            1   102.8        20.00       0.000       20.00       0.000      1.0000     -0.1792     -8.2511E-04          
WELL3            1   102.8        20.00       0.000       20.00       0.000      1.0000     -0.1792     -8.2511E-04          
* Cell-to-well conductance values (CWC) may change during the course of a stress period
 
  Capacity Q calculations stopped iter. no.   4 due to hwell change less than HWtol for well WELL1               
  with Pump-Capacity Q =   -3237.00000000000     
  Capacity Q calculations stopped iter. no.   4 due to hwell change less than HWtol for well WELL2               
  with Pump-Capacity Q =   -3237.00000000000     
  Capacity Q calculations stopped iter. no.   4 due to hwell change less than HWtol for well WELL3               
  with Pump-Capacity Q =   -3237.00000000000     

 NO OUTPUT CONTROL FOR STRESS PERIOD    9   TIME STEP    4
 
  MNW2 WELL: WELL1                Qnet =   -1615.30114175778       < Qdes
   Q  updated because of Pump Capacity restraint and/or Seepage Face calculation
 
  MNW2 WELL: WELL2                Qnet =   -1743.48521433513       < Qdes
   Q  updated because of Pump Capacity restraint and/or Seepage Face calculation
 
  MNW2 WELL: WELL3                Qnet =   -1749.90850691685       < Qdes
   Q  updated because of Pump Capacity restraint and/or Seepage Face calculation
 
 SOLVING FOR HEAD 
 
MNW2 Well Conductance and Screen (Open Interval) Data
                              M O D E L  L A Y E R     W E L L  S C R E E N   Penetration    SKIN       CALCULATED
WELLID        Node    CWC*     top_elev    bott.elev    top_elev   bott.elev    fraction     COEFF.          B
WELL1            1   102.8        20.00       0.000       20.00       0.000      1.0000     -0.1792     -8.2511E-04          
WELL2            1   102.8        20.00       0.000       20.00       0.000      1.0000     -0.1792     -8.2511E-04          
WELL3            1   102.8        20.00       0.000       20.00       0.000      1.0000     -0.1792     -8.2511E-04          
* Cell-to-well conductance values (CWC) may change during the course of a stress period
 
  Capacity Q calculations stopped iter. no.   4 due to hwell change less than HWtol for well WELL1               
  with Pump-Capacity Q =   -3237.00000000000     
  Capacity Q calculations stopped iter. no.   4 due to hwell change less than HWtol for well WELL2               
  with Pump-Capacity Q =   -3237.00000000000     
  Capacity Q calculations stopped iter. no.   4 due to hwell change less than HWtol for well WELL3               
  with Pump-Capacity Q =   -3237.00000000000     

 NO OUTPUT CONTROL FOR STRESS PERIOD    9   TIME STEP    5
 
  MNW2 WELL: WELL1                Qnet =   -1609.96139095486       < Qdes
   Q  updated because of Pump Capacity restraint and/or Seepage Face calculation
 
  MNW2 WELL: WELL2                Qnet =   -1737.66277784902       < Qdes
   Q  updated because of Pump Capacity restraint and/or Seepage Face calculation
 
  MNW2 WELL: WELL3                Qnet =   -1744.11902974375       < Qdes
   Q  updated because of Pump Capacity restraint and/or Seepage Face calculation
 
 SOLVING FOR HEAD 
 
MNW2 Well Conductance and Screen (Open Interval) Data
                              M O D E L  L A Y E R     W E L L  S C R E E N   Penetration    SKIN       CALCULATED
WELLID        Node    CWC*     top_elev    bott.elev    top_elev   bott.elev    fraction     COEFF.          B
WELL1            1   102.8        20.00       0.000       20.00       0.000      1.0000     -0.1792     -8.2511E-04          
WELL2            1   102.8        20.00       0.000       20.00       0.000      1.0000     -0.1792     -8.2511E-04          
WELL3            1   102.8        20.00       0.000       20.00       0.000      1.0000     -0.1792     -8.2511E-04          
* Cell-to-well conductance values (CWC) may change during the course of a stress period
 
  Capacity Q calculations stopped iter. no.   4 due to hwell change less than HWtol for well WELL1               
  with Pump-Capacity Q =   -3237.00000000000     
  Capacity Q calculations stopped iter. no.   4 due to hwell change less than HWtol for well WELL2               
  with Pump-Capacity Q =   -3237.00000000000     
  Capacity Q calculations stopped iter. no.   4 due to hwell change less than HWtol for well WELL3               
  with Pump-Capacity Q =   -3237.00000000000     

 NO OUTPUT CONTROL FOR STRESS PERIOD    9   TIME STEP    6
 
  MNW2 WELL: WELL1                Qnet =   -1604.69560211111       < Qdes
   Q  updated because of Pump Capacity restraint and/or Seepage Face calculation
 
  MNW2 WELL: WELL2                Qnet =   -1731.91961611577       < Qdes
   Q  updated because of Pump Capacity restraint and/or Seepage Face calculation
 
  MNW2 WELL: WELL3                Qnet =   -1738.40715516030       < Qdes
   Q  updated because of Pump Capacity restraint and/or Seepage Face calculation
 
 SOLVING FOR HEAD 
 
MNW2 Well Conductance and Screen (Open Interval) Data
                              M O D E L  L A Y E R     W E L L  S C R E E N   Penetration    SKIN       CALCULATED
WELLID        Node    CWC*     top_elev    bott.elev    top_elev   bott.elev    fraction     COEFF.          B
WELL1            1   102.8        20.00       0.000       20.00       0.000      1.0000     -0.1792     -8.2511E-04          
WELL2            1   102.8        20.00       0.000       20.00       0.000      1.0000     -0.1792     -8.2511E-04          
WELL3            1   102.8        20.00       0.000       20.00       0.000      1.0000     -0.1792     -8.2511E-04          
* Cell-to-well conductance values (CWC) may change during the course of a stress period
 
  Capacity Q calculations stopped iter. no.   4 due to hwell change less than HWtol for well WELL1               
  with Pump-Capacity Q =   -3237.00000000000     
  Capacity Q calculations stopped iter. no.   4 due to hwell change less than HWtol for well WELL2               
  with Pump-Capacity Q =   -3237.00000000000     
  Capacity Q calculations stopped iter. no.   4 due to hwell change less than HWtol for well WELL3               
  with Pump-Capacity Q =   -3237.00000000000     

 NO OUTPUT CONTROL FOR STRESS PERIOD    9   TIME STEP    7
 
  MNW2 WELL: WELL1                Qnet =   -1599.50178962794       < Qdes
   Q  updated because of Pump Capacity restraint and/or Seepage Face calculation
 
  MNW2 WELL: WELL2                Qnet =   -1726.25375361415       < Qdes
   Q  updated because of Pump Capacity restraint and/or Seepage Face calculation
 
  MNW2 WELL: WELL3                Qnet =   -1732.77099186979       < Qdes
   Q  updated because of Pump Capacity restraint and/or Seepage Face calculation
 
 SOLVING FOR HEAD 
 
MNW2 Well Conductance and Screen (Open Interval) Data
                              M O D E L  L A Y E R     W E L L  S C R E E N   Penetration    SKIN       CALCULATED
WELLID        Node    CWC*     top_elev    bott.elev    top_elev   bott.elev    fraction     COEFF.          B
WELL1            1   102.8        20.00       0.000       20.00       0.000      1.0000     -0.1792     -8.2511E-04          
WELL2            1   102.8        20.00       0.000       20.00       0.000      1.0000     -0.1792     -8.2511E-04          
WELL3            1   102.8        20.00       0.000       20.00       0.000      1.0000     -0.1792     -8.2511E-04          
* Cell-to-well conductance values (CWC) may change during the course of a stress period
 
  Capacity Q calculations stopped iter. no.   4 due to hwell change less than HWtol for well WELL1               
  with Pump-Capacity Q =   -3237.00000000000     
  Capacity Q calculations stopped iter. no.   4 due to hwell change less than HWtol for well WELL2               
  with Pump-Capacity Q =   -3237.00000000000     
  Capacity Q calculations stopped iter. no.   4 due to hwell change less than HWtol for well WELL3               
  with Pump-Capacity Q =   -3237.00000000000     

 NO OUTPUT CONTROL FOR STRESS PERIOD    9   TIME STEP    8
 
  MNW2 WELL: WELL1                Qnet =   -1594.37803941532       < Qdes
   Q  updated because of Pump Capacity restraint and/or Seepage Face calculation
 
  MNW2 WELL: WELL2                Qnet =   -1720.66334405453       < Qdes
   Q  updated because of Pump Capacity restraint and/or Seepage Face calculation
 
  MNW2 WELL: WELL3                Qnet =   -1727.20870629516       < Qdes
   Q  updated because of Pump Capacity restraint and/or Seepage Face calculation
 
 SOLVING FOR HEAD 
 
MNW2 Well Conductance and Screen (Open Interval) Data
                              M O D E L  L A Y E R     W E L L  S C R E E N   Penetration    SKIN       CALCULATED
WELLID        Node    CWC*     top_elev    bott.elev    top_elev   bott.elev    fraction     COEFF.          B
WELL1            1   102.8        20.00       0.000       20.00       0.000      1.0000     -0.1792     -8.2511E-04          
WELL2            1   102.8        20.00       0.000       20.00       0.000      1.0000     -0.1792     -8.2511E-04          
WELL3            1   102.8        20.00       0.000       20.00       0.000      1.0000     -0.1792     -8.2511E-04          
* Cell-to-well conductance values (CWC) may change during the course of a stress period
 
  Capacity Q calculations stopped iter. no.   4 due to hwell change less than HWtol for well WELL1               
  with Pump-Capacity Q =   -3237.00000000000     
  Capacity Q calculations stopped iter. no.   4 due to hwell change less than HWtol for well WELL2               
  with Pump-Capacity Q =   -3237.00000000000     
  Capacity Q calculations stopped iter. no.   4 due to hwell change less than HWtol for well WELL3               
  with Pump-Capacity Q =   -3237.00000000000     

 NO OUTPUT CONTROL FOR STRESS PERIOD    9   TIME STEP    9
 
  MNW2 WELL: WELL1                Qnet =   -1589.32255304785       < Qdes
   Q  updated because of Pump Capacity restraint and/or Seepage Face calculation
 
  MNW2 WELL: WELL2                Qnet =   -1715.14660006428       < Qdes
   Q  updated because of Pump Capacity restraint and/or Seepage Face calculation
 
  MNW2 WELL: WELL3                Qnet =   -1721.71856865314       < Qdes
   Q  updated because of Pump Capacity restraint and/or Seepage Face calculation
 
 SOLVING FOR HEAD 
 
MNW2 Well Conductance and Screen (Open Interval) Data
                              M O D E L  L A Y E R     W E L L  S C R E E N   Penetration    SKIN       CALCULATED
WELLID        Node    CWC*     top_elev    bott.elev    top_elev   bott.elev    fraction     COEFF.          B
WELL1            1   102.8        20.00       0.000       20.00       0.000      1.0000     -0.1792     -8.2511E-04          
WELL2            1   102.8        20.00       0.000       20.00       0.000      1.0000     -0.1792     -8.2511E-04          
WELL3            1   102.8        20.00       0.000       20.00       0.000      1.0000     -0.1792     -8.2511E-04          
* Cell-to-well conductance values (CWC) may change during the course of a stress period
 
  Capacity Q calculations stopped iter. no.   4 due to hwell change less than HWtol for well WELL1               
  with Pump-Capacity Q =   -3237.00000000000     
  Capacity Q calculations stopped iter. no.   4 due to hwell change less than HWtol for well WELL2               
  with Pump-Capacity Q =   -3237.00000000000     
  Capacity Q calculations stopped iter. no.   4 due to hwell change less than HWtol for well WELL3               
  with Pump-Capacity Q =   -3237.00000000000     

 OUTPUT CONTROL FOR STRESS PERIOD    9   TIME STEP   10
    SAVE HEAD FOR ALL LAYERS
    SAVE BUDGET
 UBDSV1 SAVING "         STORAGE" ON UNIT  53 AT TIME STEP 10, STRESS PERIOD   9
 UBDSV2 SAVING "   CONSTANT HEAD" ON UNIT  53 AT TIME STEP 10, STRESS PERIOD   9
 UBDSV1 SAVING "FLOW RIGHT FACE " ON UNIT  53 AT TIME STEP 10, STRESS PERIOD   9
 UBDSV1 SAVING "FLOW FRONT FACE " ON UNIT  53 AT TIME STEP 10, STRESS PERIOD   9
 UBDSV1 SAVING "FLOW LOWER FACE " ON UNIT  53 AT TIME STEP 10, STRESS PERIOD   9

 Nodal information for all MNW2 wells, PERIOD =    9  STEP =   10
WELLID                NODE   Lay   Row   Col        Totim        Q-node         hwell         hcell    Seepage elev.
WELL1                    1     2    50    50   2.656000E+03 -1.584334E+03  1.541902E+01  1.541902E+01
WELL2                    1     2    30    50   2.656000E+03 -1.709702E+03  1.663913E+01  1.663913E+01
WELL3                    1     2    70    50   2.656000E+03 -1.716299E+03  1.670333E+01  1.670333E+01

     Summary information for MNW2 wells
WELLID                    Totim            Qin           Qout           Qnet          hwell
 
  MNW2 WELL: WELL1                Qnet =   -1584.33359878723       < Qdes
   Q  updated because of Pump Capacity restraint and/or Seepage Face calculation
WELL1                   2656.00       -1584.33        0.00000       -1584.33        15.4190    
 
  MNW2 WELL: WELL2                Qnet =   -1709.70179092479       < Qdes
   Q  updated because of Pump Capacity restraint and/or Seepage Face calculation
WELL2                   2656.00       -1709.70        0.00000       -1709.70        16.6391    
 
  MNW2 WELL: WELL3                Qnet =   -1716.29890925258       < Qdes
   Q  updated because of Pump Capacity restraint and/or Seepage Face calculation
WELL3                   2656.00       -1716.30        0.00000       -1716.30        16.7033    
 
 UBUDSV SAVING "            MNW2" ON UNIT 90 AT TIME STEP 10, STRESS PERIOD    9

 HEAD WILL BE SAVED ON UNIT   51 AT END OF TIME STEP   10, STRESS PERIOD    9
1
  VOLUMETRIC BUDGET FOR ENTIRE MODEL AT END OF TIME STEP   10, STRESS PERIOD   9
  ------------------------------------------------------------------------------

     CUMULATIVE VOLUMES      L**3       RATES FOR THIS TIME STEP      L**3/T
     ------------------                 ------------------------

           IN:                                      IN:
           ---                                      ---
             STORAGE =    12621795.0000               STORAGE =        2788.4536
       CONSTANT HEAD =     3402040.7500         CONSTANT HEAD =        2221.9185
                MNW2 =           0.0000                  MNW2 =           0.0000

            TOTAL IN =    16023836.0000              TOTAL IN =        5010.3721

          OUT:                                     OUT:
          ----                                     ----
             STORAGE =           0.0000               STORAGE =           0.0000
       CONSTANT HEAD =           0.0000         CONSTANT HEAD =           0.0000
                MNW2 =    16023735.0000                  MNW2 =        5010.3345

           TOTAL OUT =    16023735.0000             TOTAL OUT =        5010.3345

            IN - OUT =         101.0000              IN - OUT =       3.7598E-02

 PERCENT DISCREPANCY =           0.00     PERCENT DISCREPANCY =           0.00






         TIME SUMMARY AT END OF TIME STEP   10 IN STRESS PERIOD    9
                    SECONDS     MINUTES      HOURS       DAYS        YEARS
                    -----------------------------------------------------------
   TIME STEP LENGTH 3.15360E+06  52560.      876.00      36.500     9.99316E-02
 STRESS PERIOD TIME 3.15360E+07 5.25600E+05  8760.0      365.00     0.99932    
         TOTAL TIME 2.29478E+08 3.82464E+06  63744.      2656.0      7.2717    
1
1
                            STRESS PERIOD NO.   10, LENGTH =   365.0000    
                            -----------------------------------------------

                              NUMBER OF TIME STEPS =    10

                               MULTIPLIER FOR DELT =     1.000

                            INITIAL TIME STEP SIZE =   36.50000    
 
 MNW2:            3  active wells in stress period           10
 
 
 WELLNAME = WELL1               
MNW2 Well well1                active, desired Q = -3.2370E+03 for stress period   10
 
Reference head for calculating lift =   1.0000E+01
Pump Capacity Multiplier =   1.0000E+00
HWtol =   1.0000E-02
     (Note: Solution may be sensitive to value of HWtol; adjust value if solution fails to converge.)
 
   Well Capacity Table
    Lift       Discharge
   80.000       0.000    
   75.000       809.0    
   70.000       1618.    
   65.000       2427.    
   60.000       3235.    
  1.00000       3236.    
   0.0000       3237.    
 
 WELLNAME = WELL2               
MNW2 Well well2                active, desired Q = -3.2370E+03 for stress period   10
 
Reference head for calculating lift =   1.0000E+01
Pump Capacity Multiplier =   1.0000E+00
HWtol =   1.0000E-02
     (Note: Solution may be sensitive to value of HWtol; adjust value if solution fails to converge.)
 
   Well Capacity Table
    Lift       Discharge
   80.000       0.000    
   75.000       809.0    
   70.000       1618.    
   65.000       2427.    
   60.000       3235.    
  1.00000       3236.    
   0.0000       3237.    
 
 WELLNAME = WELL3               
MNW2 Well well3                active, desired Q = -3.2370E+03 for stress period   10
 
Reference head for calculating lift =   1.0000E+01
Pump Capacity Multiplier =   1.0000E+00
HWtol =   1.0000E-02
     (Note: Solution may be sensitive to value of HWtol; adjust value if solution fails to converge.)
 
   Well Capacity Table
    Lift       Discharge
   80.000       0.000    
   75.000       809.0    
   70.000       1618.    
   65.000       2427.    
   60.000       3235.    
  1.00000       3236.    
   0.0000       3237.    
 
 SOLVING FOR HEAD 
 
MNW2 Well Conductance and Screen (Open Interval) Data
                              M O D E L  L A Y E R     W E L L  S C R E E N   Penetration    SKIN       CALCULATED
WELLID        Node    CWC*     top_elev    bott.elev    top_elev   bott.elev    fraction     COEFF.          B
WELL1            1   102.8        20.00       0.000       20.00       0.000      1.0000     -0.1792     -8.2511E-04          
WELL2            1   102.8        20.00       0.000       20.00       0.000      1.0000     -0.1792     -8.2511E-04          
WELL3            1   102.8        20.00       0.000       20.00       0.000      1.0000     -0.1792     -8.2511E-04          
* Cell-to-well conductance values (CWC) may change during the course of a stress period
 
  Capacity Q calculations stopped iter. no.   4 due to hwell change less than HWtol for well WELL1               
  with Pump-Capacity Q =   -3237.00000000000     
  Capacity Q calculations stopped iter. no.   4 due to hwell change less than HWtol for well WELL2               
  with Pump-Capacity Q =   -3237.00000000000     
  Capacity Q calculations stopped iter. no.   4 due to hwell change less than HWtol for well WELL3               
  with Pump-Capacity Q =   -3237.00000000000     

 NO OUTPUT CONTROL FOR STRESS PERIOD   10   TIME STEP    1
 
  MNW2 WELL: WELL1                Qnet =   -1579.40955059064       < Qdes
   Q  updated because of Pump Capacity restraint and/or Seepage Face calculation
 
  MNW2 WELL: WELL2                Qnet =   -1704.32727770189       < Qdes
   Q  updated because of Pump Capacity restraint and/or Seepage Face calculation
 
  MNW2 WELL: WELL3                Qnet =   -1710.94813758882       < Qdes
   Q  updated because of Pump Capacity restraint and/or Seepage Face calculation
 
 SOLVING FOR HEAD 
 
MNW2 Well Conductance and Screen (Open Interval) Data
                              M O D E L  L A Y E R     W E L L  S C R E E N   Penetration    SKIN       CALCULATED
WELLID        Node    CWC*     top_elev    bott.elev    top_elev   bott.elev    fraction     COEFF.          B
WELL1            1   102.8        20.00       0.000       20.00       0.000      1.0000     -0.1792     -8.2511E-04          
WELL2            1   102.8        20.00       0.000       20.00       0.000      1.0000     -0.1792     -8.2511E-04          
WELL3            1   102.8        20.00       0.000       20.00       0.000      1.0000     -0.1792     -8.2511E-04          
* Cell-to-well conductance values (CWC) may change during the course of a stress period
 
  Capacity Q calculations stopped iter. no.   4 due to hwell change less than HWtol for well WELL1               
  with Pump-Capacity Q =   -3237.00000000000     
  Capacity Q calculations stopped iter. no.   4 due to hwell change less than HWtol for well WELL2               
  with Pump-Capacity Q =   -3237.00000000000     
  Capacity Q calculations stopped iter. no.   4 due to hwell change less than HWtol for well WELL3               
  with Pump-Capacity Q =   -3237.00000000000     

 NO OUTPUT CONTROL FOR STRESS PERIOD   10   TIME STEP    2
 
  MNW2 WELL: WELL1                Qnet =   -1574.54884517605       < Qdes
   Q  updated because of Pump Capacity restraint and/or Seepage Face calculation
 
  MNW2 WELL: WELL2                Qnet =   -1699.02147178347       < Qdes
   Q  updated because of Pump Capacity restraint and/or Seepage Face calculation
 
  MNW2 WELL: WELL3                Qnet =   -1705.66471709832       < Qdes
   Q  updated because of Pump Capacity restraint and/or Seepage Face calculation
 
 SOLVING FOR HEAD 
 
MNW2 Well Conductance and Screen (Open Interval) Data
                              M O D E L  L A Y E R     W E L L  S C R E E N   Penetration    SKIN       CALCULATED
WELLID        Node    CWC*     top_elev    bott.elev    top_elev   bott.elev    fraction     COEFF.          B
WELL1            1   102.8        20.00       0.000       20.00       0.000      1.0000     -0.1792     -8.2511E-04          
WELL2            1   102.8        20.00       0.000       20.00       0.000      1.0000     -0.1792     -8.2511E-04          
WELL3            1   102.8        20.00       0.000       20.00       0.000      1.0000     -0.1792     -8.2511E-04          
* Cell-to-well conductance values (CWC) may change during the course of a stress period
 
  Capacity Q calculations stopped iter. no.   4 due to hwell change less than HWtol for well WELL1               
  with Pump-Capacity Q =   -3237.00000000000     
  Capacity Q calculations stopped iter. no.   4 due to hwell change less than HWtol for well WELL2               
  with Pump-Capacity Q =   -3237.00000000000     
  Capacity Q calculations stopped iter. no.   4 due to hwell change less than HWtol for well WELL3               
  with Pump-Capacity Q =   -3237.00000000000     

 NO OUTPUT CONTROL FOR STRESS PERIOD   10   TIME STEP    3
 
  MNW2 WELL: WELL1                Qnet =   -1569.74994606253       < Qdes
   Q  updated because of Pump Capacity restraint and/or Seepage Face calculation
 
  MNW2 WELL: WELL2                Qnet =   -1693.78285644853       < Qdes
   Q  updated because of Pump Capacity restraint and/or Seepage Face calculation
 
  MNW2 WELL: WELL3                Qnet =   -1700.44716865817       < Qdes
   Q  updated because of Pump Capacity restraint and/or Seepage Face calculation
 
 SOLVING FOR HEAD 
 
MNW2 Well Conductance and Screen (Open Interval) Data
                              M O D E L  L A Y E R     W E L L  S C R E E N   Penetration    SKIN       CALCULATED
WELLID        Node    CWC*     top_elev    bott.elev    top_elev   bott.elev    fraction     COEFF.          B
WELL1            1   102.8        20.00       0.000       20.00       0.000      1.0000     -0.1792     -8.2511E-04          
WELL2            1   102.8        20.00       0.000       20.00       0.000      1.0000     -0.1792     -8.2511E-04          
WELL3            1   102.8        20.00       0.000       20.00       0.000      1.0000     -0.1792     -8.2511E-04          
* Cell-to-well conductance values (CWC) may change during the course of a stress period
 
  Capacity Q calculations stopped iter. no.   4 due to hwell change less than HWtol for well WELL1               
  with Pump-Capacity Q =   -3237.00000000000     
  Capacity Q calculations stopped iter. no.   4 due to hwell change less than HWtol for well WELL2               
  with Pump-Capacity Q =   -3237.00000000000     
  Capacity Q calculations stopped iter. no.   4 due to hwell change less than HWtol for well WELL3               
  with Pump-Capacity Q =   -3237.00000000000     

 NO OUTPUT CONTROL FOR STRESS PERIOD   10   TIME STEP    4
 
  MNW2 WELL: WELL1                Qnet =   -1565.01146583357       < Qdes
   Q  updated because of Pump Capacity restraint and/or Seepage Face calculation
 
  MNW2 WELL: WELL2                Qnet =   -1688.60998076515       < Qdes
   Q  updated because of Pump Capacity restraint and/or Seepage Face calculation
 
  MNW2 WELL: WELL3                Qnet =   -1695.29409167993       < Qdes
   Q  updated because of Pump Capacity restraint and/or Seepage Face calculation
 
 SOLVING FOR HEAD 
 
MNW2 Well Conductance and Screen (Open Interval) Data
                              M O D E L  L A Y E R     W E L L  S C R E E N   Penetration    SKIN       CALCULATED
WELLID        Node    CWC*     top_elev    bott.elev    top_elev   bott.elev    fraction     COEFF.          B
WELL1            1   102.8        20.00       0.000       20.00       0.000      1.0000     -0.1792     -8.2511E-04          
WELL2            1   102.8        20.00       0.000       20.00       0.000      1.0000     -0.1792     -8.2511E-04          
WELL3            1   102.8        20.00       0.000       20.00       0.000      1.0000     -0.1792     -8.2511E-04          
* Cell-to-well conductance values (CWC) may change during the course of a stress period
 
  Capacity Q calculations stopped iter. no.   4 due to hwell change less than HWtol for well WELL1               
  with Pump-Capacity Q =   -3237.00000000000     
  Capacity Q calculations stopped iter. no.   4 due to hwell change less than HWtol for well WELL2               
  with Pump-Capacity Q =   -3237.00000000000     
  Capacity Q calculations stopped iter. no.   4 due to hwell change less than HWtol for well WELL3               
  with Pump-Capacity Q =   -3237.00000000000     

 NO OUTPUT CONTROL FOR STRESS PERIOD   10   TIME STEP    5
 
  MNW2 WELL: WELL1                Qnet =   -1560.33202811914       < Qdes
   Q  updated because of Pump Capacity restraint and/or Seepage Face calculation
 
  MNW2 WELL: WELL2                Qnet =   -1683.50144503978       < Qdes
   Q  updated because of Pump Capacity restraint and/or Seepage Face calculation
 
  MNW2 WELL: WELL3                Qnet =   -1690.20412703552       < Qdes
   Q  updated because of Pump Capacity restraint and/or Seepage Face calculation
 
 SOLVING FOR HEAD 
 
MNW2 Well Conductance and Screen (Open Interval) Data
                              M O D E L  L A Y E R     W E L L  S C R E E N   Penetration    SKIN       CALCULATED
WELLID        Node    CWC*     top_elev    bott.elev    top_elev   bott.elev    fraction     COEFF.          B
WELL1            1   102.8        20.00       0.000       20.00       0.000      1.0000     -0.1792     -8.2511E-04          
WELL2            1   102.8        20.00       0.000       20.00       0.000      1.0000     -0.1792     -8.2511E-04          
WELL3            1   102.8        20.00       0.000       20.00       0.000      1.0000     -0.1792     -8.2511E-04          
* Cell-to-well conductance values (CWC) may change during the course of a stress period
 
  Capacity Q calculations stopped iter. no.   4 due to hwell change less than HWtol for well WELL1               
  with Pump-Capacity Q =   -3237.00000000000     
  Capacity Q calculations stopped iter. no.   4 due to hwell change less than HWtol for well WELL2               
  with Pump-Capacity Q =   -3237.00000000000     
  Capacity Q calculations stopped iter. no.   4 due to hwell change less than HWtol for well WELL3               
  with Pump-Capacity Q =   -3237.00000000000     

 NO OUTPUT CONTROL FOR STRESS PERIOD   10   TIME STEP    6
 
  MNW2 WELL: WELL1                Qnet =   -1555.71032726472       < Qdes
   Q  updated because of Pump Capacity restraint and/or Seepage Face calculation
 
  MNW2 WELL: WELL2                Qnet =   -1678.45588504096       < Qdes
   Q  updated because of Pump Capacity restraint and/or Seepage Face calculation
 
  MNW2 WELL: WELL3                Qnet =   -1685.17596267248       < Qdes
   Q  updated because of Pump Capacity restraint and/or Seepage Face calculation
 
 SOLVING FOR HEAD 
 
MNW2 Well Conductance and Screen (Open Interval) Data
                              M O D E L  L A Y E R     W E L L  S C R E E N   Penetration    SKIN       CALCULATED
WELLID        Node    CWC*     top_elev    bott.elev    top_elev   bott.elev    fraction     COEFF.          B
WELL1            1   102.8        20.00       0.000       20.00       0.000      1.0000     -0.1792     -8.2511E-04          
WELL2            1   102.8        20.00       0.000       20.00       0.000      1.0000     -0.1792     -8.2511E-04          
WELL3            1   102.8        20.00       0.000       20.00       0.000      1.0000     -0.1792     -8.2511E-04          
* Cell-to-well conductance values (CWC) may change during the course of a stress period
 
  Capacity Q calculations stopped iter. no.   4 due to hwell change less than HWtol for well WELL1               
  with Pump-Capacity Q =   -3237.00000000000     
  Capacity Q calculations stopped iter. no.   4 due to hwell change less than HWtol for well WELL2               
  with Pump-Capacity Q =   -3237.00000000000     
  Capacity Q calculations stopped iter. no.   4 due to hwell change less than HWtol for well WELL3               
  with Pump-Capacity Q =   -3237.00000000000     

 NO OUTPUT CONTROL FOR STRESS PERIOD   10   TIME STEP    7
 
  MNW2 WELL: WELL1                Qnet =   -1551.14510590624       < Qdes
   Q  updated because of Pump Capacity restraint and/or Seepage Face calculation
 
  MNW2 WELL: WELL2                Qnet =   -1673.47201363209       < Qdes
   Q  updated because of Pump Capacity restraint and/or Seepage Face calculation
 
  MNW2 WELL: WELL3                Qnet =   -1680.20834109007       < Qdes
   Q  updated because of Pump Capacity restraint and/or Seepage Face calculation
 
 SOLVING FOR HEAD 
 
MNW2 Well Conductance and Screen (Open Interval) Data
                              M O D E L  L A Y E R     W E L L  S C R E E N   Penetration    SKIN       CALCULATED
WELLID        Node    CWC*     top_elev    bott.elev    top_elev   bott.elev    fraction     COEFF.          B
WELL1            1   102.8        20.00       0.000       20.00       0.000      1.0000     -0.1792     -8.2511E-04          
WELL2            1   102.8        20.00       0.000       20.00       0.000      1.0000     -0.1792     -8.2511E-04          
WELL3            1   102.8        20.00       0.000       20.00       0.000      1.0000     -0.1792     -8.2511E-04          
* Cell-to-well conductance values (CWC) may change during the course of a stress period
 
  Capacity Q calculations stopped iter. no.   4 due to hwell change less than HWtol for well WELL1               
  with Pump-Capacity Q =   -3237.00000000000     
  Capacity Q calculations stopped iter. no.   4 due to hwell change less than HWtol for well WELL2               
  with Pump-Capacity Q =   -3237.00000000000     
  Capacity Q calculations stopped iter. no.   4 due to hwell change less than HWtol for well WELL3               
  with Pump-Capacity Q =   -3237.00000000000     

 NO OUTPUT CONTROL FOR STRESS PERIOD   10   TIME STEP    8
 
  MNW2 WELL: WELL1                Qnet =   -1546.63516156422       < Qdes
   Q  updated because of Pump Capacity restraint and/or Seepage Face calculation
 
  MNW2 WELL: WELL2                Qnet =   -1668.54857513441       < Qdes
   Q  updated because of Pump Capacity restraint and/or Seepage Face calculation
 
  MNW2 WELL: WELL3                Qnet =   -1675.30005079856       < Qdes
   Q  updated because of Pump Capacity restraint and/or Seepage Face calculation
 
 SOLVING FOR HEAD 
 
MNW2 Well Conductance and Screen (Open Interval) Data
                              M O D E L  L A Y E R     W E L L  S C R E E N   Penetration    SKIN       CALCULATED
WELLID        Node    CWC*     top_elev    bott.elev    top_elev   bott.elev    fraction     COEFF.          B
WELL1            1   102.8        20.00       0.000       20.00       0.000      1.0000     -0.1792     -8.2511E-04          
WELL2            1   102.8        20.00       0.000       20.00       0.000      1.0000     -0.1792     -8.2511E-04          
WELL3            1   102.8        20.00       0.000       20.00       0.000      1.0000     -0.1792     -8.2511E-04          
* Cell-to-well conductance values (CWC) may change during the course of a stress period
 
  Capacity Q calculations stopped iter. no.   4 due to hwell change less than HWtol for well WELL1               
  with Pump-Capacity Q =   -3237.00000000000     
  Capacity Q calculations stopped iter. no.   4 due to hwell change less than HWtol for well WELL2               
  with Pump-Capacity Q =   -3237.00000000000     
  Capacity Q calculations stopped iter. no.   4 due to hwell change less than HWtol for well WELL3               
  with Pump-Capacity Q =   -3237.00000000000     

 NO OUTPUT CONTROL FOR STRESS PERIOD   10   TIME STEP    9
 
  MNW2 WELL: WELL1                Qnet =   -1542.17934568278       < Qdes
   Q  updated because of Pump Capacity restraint and/or Seepage Face calculation
 
  MNW2 WELL: WELL2                Qnet =   -1663.68436438572       < Qdes
   Q  updated because of Pump Capacity restraint and/or Seepage Face calculation
 
  MNW2 WELL: WELL3                Qnet =   -1670.44992535427       < Qdes
   Q  updated because of Pump Capacity restraint and/or Seepage Face calculation
 
 SOLVING FOR HEAD 
 
MNW2 Well Conductance and Screen (Open Interval) Data
                              M O D E L  L A Y E R     W E L L  S C R E E N   Penetration    SKIN       CALCULATED
WELLID        Node    CWC*     top_elev    bott.elev    top_elev   bott.elev    fraction     COEFF.          B
WELL1            1   102.8        20.00       0.000       20.00       0.000      1.0000     -0.1792     -8.2511E-04          
WELL2            1   102.8        20.00       0.000       20.00       0.000      1.0000     -0.1792     -8.2511E-04          
WELL3            1   102.8        20.00       0.000       20.00       0.000      1.0000     -0.1792     -8.2511E-04          
* Cell-to-well conductance values (CWC) may change during the course of a stress period
 
  Capacity Q calculations stopped iter. no.   4 due to hwell change less than HWtol for well WELL1               
  with Pump-Capacity Q =   -3237.00000000000     
  Capacity Q calculations stopped iter. no.   4 due to hwell change less than HWtol for well WELL2               
  with Pump-Capacity Q =   -3237.00000000000     
  Capacity Q calculations stopped iter. no.   4 due to hwell change less than HWtol for well WELL3               
  with Pump-Capacity Q =   -3237.00000000000     

 OUTPUT CONTROL FOR STRESS PERIOD   10   TIME STEP   10
    SAVE HEAD FOR ALL LAYERS
    SAVE BUDGET
 UBDSV1 SAVING "         STORAGE" ON UNIT  53 AT TIME STEP 10, STRESS PERIOD  10
 UBDSV2 SAVING "   CONSTANT HEAD" ON UNIT  53 AT TIME STEP 10, STRESS PERIOD  10
 UBDSV1 SAVING "FLOW RIGHT FACE " ON UNIT  53 AT TIME STEP 10, STRESS PERIOD  10
 UBDSV1 SAVING "FLOW FRONT FACE " ON UNIT  53 AT TIME STEP 10, STRESS PERIOD  10
 UBDSV1 SAVING "FLOW LOWER FACE " ON UNIT  53 AT TIME STEP 10, STRESS PERIOD  10

 Nodal information for all MNW2 wells, PERIOD =   10  STEP =   10
WELLID                NODE   Lay   Row   Col        Totim        Q-node         hwell         hcell    Seepage elev.
WELL1                    1     2    50    50   3.021000E+03 -1.537777E+03  1.496592E+01  1.496592E+01
WELL2                    1     2    30    50   3.021000E+03 -1.658878E+03  1.614450E+01  1.614450E+01
WELL3                    1     2    70    50   3.021000E+03 -1.665657E+03  1.621047E+01  1.621047E+01

     Summary information for MNW2 wells
WELLID                    Totim            Qin           Qout           Qnet          hwell
 
  MNW2 WELL: WELL1                Qnet =   -1537.77654803751       < Qdes
   Q  updated because of Pump Capacity restraint and/or Seepage Face calculation
WELL1                   3021.00       -1537.78        0.00000       -1537.78        14.9659    
 
  MNW2 WELL: WELL2                Qnet =   -1658.87821038648       < Qdes
   Q  updated because of Pump Capacity restraint and/or Seepage Face calculation
WELL2                   3021.00       -1658.88        0.00000       -1658.88        16.1445    
 
  MNW2 WELL: WELL3                Qnet =   -1665.65684456738       < Qdes
   Q  updated because of Pump Capacity restraint and/or Seepage Face calculation
WELL3                   3021.00       -1665.66        0.00000       -1665.66        16.2105    
 
 UBUDSV SAVING "            MNW2" ON UNIT 90 AT TIME STEP 10, STRESS PERIOD   10

 HEAD WILL BE SAVED ON UNIT   51 AT END OF TIME STEP   10, STRESS PERIOD   10
1
  VOLUMETRIC BUDGET FOR ENTIRE MODEL AT END OF TIME STEP   10, STRESS PERIOD  10
  ------------------------------------------------------------------------------

     CUMULATIVE VOLUMES      L**3       RATES FOR THIS TIME STEP      L**3/T
     ------------------                 ------------------------

           IN:                                      IN:
           ---                                      ---
             STORAGE =    13581370.0000               STORAGE =        2504.7446
       CONSTANT HEAD =     4240986.0000         CONSTANT HEAD =        2357.6047
                MNW2 =           0.0000                  MNW2 =           0.0000

            TOTAL IN =    17822356.0000              TOTAL IN =        4862.3496

          OUT:                                     OUT:
          ----                                     ----
             STORAGE =           0.0000               STORAGE =           0.0000
       CONSTANT HEAD =           0.0000         CONSTANT HEAD =           0.0000
                MNW2 =    17822240.0000                  MNW2 =        4862.3115

           TOTAL OUT =    17822240.0000             TOTAL OUT =        4862.3115

            IN - OUT =         116.0000              IN - OUT =       3.8086E-02

 PERCENT DISCREPANCY =           0.00     PERCENT DISCREPANCY =           0.00






         TIME SUMMARY AT END OF TIME STEP   10 IN STRESS PERIOD   10
                    SECONDS     MINUTES      HOURS       DAYS        YEARS
                    -----------------------------------------------------------
   TIME STEP LENGTH 3.15360E+06  52560.      876.00      36.500     9.99316E-02
 STRESS PERIOD TIME 3.15360E+07 5.25600E+05  8760.0      365.00     0.99932    
         TOTAL TIME 2.61014E+08 4.35024E+06  72504.      3021.0      8.2710    
1

 Run end date and time (yyyy/mm/dd hh:mm:ss): 2016/11/14 11:25:49
 Elapsed run time:  5.396 Seconds

